<?xml version="1.0" encoding="UTF-8"?>

<!-- generated on 2026-03-23T20:56:12.555004+05:30 by Eclipse SUMO duarouter 1.26.0
<duarouterConfiguration xmlns:xsi="http://www.w3.org/2001/XMLSchema-instance" xsi:noNamespaceSchemaLocation="http://sumo.dlr.de/xsd/duarouterConfiguration.xsd">

    <input>
        <net-file value="C:\Users\welcome\Downloads\fixed_aqi_simulation_v12_pm25_graphfix\city\city.net.xml"/>
        <route-files value="C:\Users\welcome\Downloads\fixed_aqi_simulation_v12_pm25_graphfix\city\trips_car_silver.xml"/>
    </input>

    <output>
        <output-file value="routes.rou.xml"/>
        <vtype-output value="car_silver"/>
        <alternatives-output value="NUL"/>
    </output>

    <time>
        <begin value="0"/>
        <end value="3600.0"/>
    </time>

    <report>
        <no-warnings value="true"/>
        <ignore-errors value="true"/>
        <no-step-log value="true"/>
    </report>

</duarouterConfiguration>
-->

<routes xmlns:xsi="http://www.w3.org/2001/XMLSchema-instance" xsi:noNamespaceSchemaLocation="http://sumo.dlr.de/xsd/routes_file.xsd">
</routes>
