<?xml version="1.0" encoding="UTF-8"?>

<!-- generated on 2026-03-23 20:56:32.432078 by Eclipse SUMO randomTrips.py v1_26_0+0000-fa7df22d7f1
<configuration>
    <net-file value="C:\Users\welcome\Downloads\fixed_aqi_simulation_v12_pm25_graphfix\city\city.net.xml"/>
    <output-trip-file value="C:\Users\welcome\Downloads\fixed_aqi_simulation_v12_pm25_graphfix\city\trips_bike.xml"/>
    <vtype-output value="bike"/>
    <prefix value="bike."/>
    <fringe-factor value="5"/>
    <allow-fringe value="True"/>
    <seed value="50"/>
    <period value="1.1"/>
    <random-depart value="True"/>
</configuration>
-->

<!-- generated on 2026-03-23T20:56:32.060432+05:30 by Eclipse SUMO duarouter 1.26.0
<duarouterConfiguration xmlns:xsi="http://www.w3.org/2001/XMLSchema-instance" xsi:noNamespaceSchemaLocation="http://sumo.dlr.de/xsd/duarouterConfiguration.xsd">

    <input>
        <net-file value="C:\Users\welcome\Downloads\fixed_aqi_simulation_v12_pm25_graphfix\city\city.net.xml"/>
        <route-files value="C:\Users\welcome\Downloads\fixed_aqi_simulation_v12_pm25_graphfix\city\trips_bike.xml"/>
    </input>

    <output>
        <output-file value="routes.rou.xml"/>
        <vtype-output value="bike"/>
        <alternatives-output value="NUL"/>
    </output>

    <time>
        <begin value="0"/>
        <end value="3600.0"/>
    </time>

    <report>
        <no-warnings value="true"/>
        <ignore-errors value="true"/>
        <no-step-log value="true"/>
    </report>

</duarouterConfiguration>
-->

<routes xmlns:xsi="http://www.w3.org/2001/XMLSchema-instance" xsi:noNamespaceSchemaLocation="http://sumo.dlr.de/xsd/routes_file.xsd">
    <vehicle id="bike.0" depart="1.90">
        <route edges="1282119227 23134098#0 -537797267#1"/>
    </vehicle>
    <vehicle id="bike.1" depart="5.30">
        <route edges="1078382396#2 998197439#1 582776170#0 747485439#0 747485439#1 1248027223#0 1248027223#1 581989173#2 581989173#4 581989173#5 680551206#0 680551212 582461172#0 582461172#3 680551211 24563435#0"/>
    </vehicle>
    <vehicle id="bike.2" depart="6.20">
        <route edges="423559880#1 235103526#0 235103526#1 235103526#2 -139069980#3 -139069980#1 -139069980#0 446922582#9 581989173#0 581989173#1 581989173#2 581989173#4 581989173#5 680551206#0 680551212 582461172#0 582461172#3 680551211 680551207 23134098#0 23134098#1 23134098#3 23134098#4 23134098#6 23134098#7 24563437#0 24563436#0 -370672197#8"/>
    </vehicle>
    <vehicle id="bike.3" depart="7.10">
        <route edges="446922582#0 995113416#6 712992080#0 712992080#1 712992080#5 995113419 570859666#0 570859666#2 446922583#1 722082942 447141131#0 447141131#2 446922589 24583333#2 447602096#0 706854224"/>
    </vehicle>
    <vehicle id="bike.4" depart="10.90">
        <route edges="1282119227 23134098#0 23134098#1 23134098#3 23134098#4 23134098#6 23134098#7 24563437#0 24563436#0 24563436#2 1306148229#1 1306148229#4 446922583#1 722082942 447141131#0 720546573#0 720546573#2 720546573#3"/>
    </vehicle>
    <vehicle id="bike.5" depart="11.90">
        <route edges="1248027223#0 1248027223#1 581989173#2 24563446#0 43540281#1 43540281#2 -1078382397 1078382396#2 998197439#1 582776170#0 1248027226 1183619480 28103660#3 1248031159"/>
    </vehicle>
    <vehicle id="bike.6" depart="12.60">
        <route edges="43540281#1 43540281#2 -1078382397 1078382396#2 998197439#1 582776170#0 582776170#2 1296316293#0 1296316293#1 973071398 995113416#0 995113416#6 712992080#0 712992080#1 712992080#5 995113419 570859666#0 570859666#2 446922583#1 722082942 447141131#0 720546573#0 720546573#2 -562499724#8"/>
    </vehicle>
    <vehicle id="bike.7" depart="14.80">
        <route edges="717531847#0 717531847#1 717531847#2 717531847#3 -139069980#1 -139069980#0 446922582#9 581989173#0 581989173#1 581989173#2 581989173#4 581989173#5 680551206#0 680551212 582461172#0 582461172#3 680551211 24563435#0 24563435#2"/>
    </vehicle>
    <vehicle id="bike.8" depart="16.20">
        <route edges="537797267#0 23134098#1 23134098#3 23134098#4 23134098#6 23134098#7 656933873 656933872#0 80499762#0 80499762#3 80499762#4 995113416#6 995113417#0 446922582#6 446922582#8"/>
    </vehicle>
    <vehicle id="bike.9" depart="16.40">
        <route edges="28616711#0 28616711#1 23134098#0 23134098#1 23134098#3 23134098#4 23134098#6 23134098#7 656933873 656933872#0 80499762#0 80499762#3 80499762#4 995113416#6 995113417#0 446922582#6 -1137574037"/>
    </vehicle>
    <vehicle id="bike.10" depart="18.00">
        <route edges="-717531844#0 -423559880#1 -423559880#0 -139069980#6 -139069980#3 -139069980#1 -139069980#0 446922582#9"/>
    </vehicle>
    <vehicle id="bike.11" depart="18.90">
        <route edges="717531848#4 139069980#5 139069980#7 562202340#6 562202340#7 1296316293#1 973071398 995113416#0 995113416#6 712992080#0 712992080#1 712992080#5 995113419 570859666#0 570859666#2 446922583#1 722082942 447141131#0 720546573#0 720546573#2 -562499724#8"/>
    </vehicle>
    <vehicle id="bike.12" depart="19.00">
        <route edges="-235103526#2 -717531842 -423559880#0 139069980#7 562202340#6 562202340#7 1296316293#1 973071398 995113416#0 995113416#6 712992080#0 712992080#1 712992080#5 995113419 570859666#0 656933875 656933877#0 656933877#5 656933877#9 717512502#0 -370672197#2"/>
    </vehicle>
    <vehicle id="bike.13" depart="22.50">
        <route edges="717531844#1 717531844#2 717531847#1 717531847#2 717531847#3 -139069980#1 -139069980#0 446922582#9 581989173#0 581989173#1 581989173#2 581989173#4 581989173#5 680551206#0 680551212 296963059#0 296963059#1"/>
    </vehicle>
    <vehicle id="bike.14" depart="22.60">
        <route edges="712992080#1 712992080#5 995113419 570859666#0 656933875 656933877#0 656933877#5 656933877#9 656933877#13 656933877#19 24563433 656933872#0 582461171#0 581989173#0 581989173#1 581989173#2 24563446#0 43540281#1 43540281#2 -1078382397 -1078382396#1"/>
    </vehicle>
    <vehicle id="bike.15" depart="24.40">
        <route edges="43540281#1 43540281#2 -1078382397 1078382396#2 998197439#1 582776170#0 582776170#2 1296316293#0 1296316293#1 973071398 995113416#0 446922582#6 446922582#8 139069980#0 139069980#1 139069980#2 139069980#5 423559880#0"/>
    </vehicle>
    <vehicle id="bike.16" depart="28.80">
        <route edges="1189610486 712992080#1 712992080#5 995113419 570859666#0 570859666#2 446922583#1 722082942 447141131#0 720546573#0 720546573#2 -562499724#8"/>
    </vehicle>
    <vehicle id="bike.17" depart="29.70">
        <route edges="998790352#1 998790352#2 998790358#0"/>
    </vehicle>
    <vehicle id="bike.18" depart="30.10">
        <route edges="1121186660#0 1121186661 1121186660#2 998790358#10 998790358#11 998790358#18 998790351#0 447141131#0 447141131#2 446922589 24583333#2 447602096#0 447602096#3 447602095 80499271#0 80499271#1 80499271#3 446856065 447135853#0 447135853#1 293530132#0 293530132#6 1248027218 973071395#0"/>
    </vehicle>
    <vehicle id="bike.19" depart="30.60">
        <route edges="-1121186669#1 -1121186669#0 998790358#1 998790358#8 998790358#10 998790358#11 998790358#18 998790351#0 447141131#0 447141131#2 446922589 24583333#2 447602096#0 447602096#3 447602095 80499271#0 80499271#1 80499271#3 446856065 447135853#0 447135853#1 293530132#0 293530132#6 585446279#0 585446279#1 973071399#2 1268938225 28103660#0 28103660#2 28103660#3 28103660#4 1075739137#0"/>
    </vehicle>
    <vehicle id="bike.20" depart="31.00">
        <route edges="-24583593#10 -24583593#7 -24583593#4 -24583593#3"/>
    </vehicle>
    <vehicle id="bike.21" depart="33.00">
        <route edges="-717531846 717531847#3 139069980#2 139069980#5 139069980#7 562202340#6 562202340#7 1296316293#1 1296316292 293530132#6 585446279#0 585446279#1 973071399#2 1268938225 28103660#0 28103660#2 28103660#3 28103660#4 28103660#6 28103660#7 28103660#8 1248079227"/>
    </vehicle>
    <vehicle id="bike.22" depart="35.60">
        <route edges="-717512501 656933877#13 656933877#19 24563433 656933872#0 582461171#0 581989173#0 581989173#1 581989173#2 581989173#4 581989173#5 680551206#0 680551212 582461172#0 582461172#3 680551211 680551207 23134098#0 23134098#1 24563431#0"/>
    </vehicle>
    <vehicle id="bike.23" depart="36.20">
        <route edges="-706854224 447602096#3 447602095 80499271#0 80499271#1 80499271#3 446856065 446922582#0 446922582#6 446922582#8 139069980#0 139069980#1 139069980#2 -235103526#2 -717531842 -423559880#0 -139069980#6"/>
    </vehicle>
    <vehicle id="bike.24" depart="36.90">
        <route edges="581989173#5 680551206#0 680551212 582461172#0 582461172#3 680551211 680551207 23134098#0 23134098#1 23134098#3 23134098#4 23134098#6 23134098#7 656933873 656933872#0 80499762#0 80499762#3 80499762#4 995113416#6 995113417#0 446922582#6 446922582#8 139069980#0 139069980#1"/>
    </vehicle>
    <vehicle id="bike.25" depart="37.00">
        <route edges="28616711#0 28616711#1 23134098#0 23134098#1 23134098#3 23134098#4 23134098#6 23134098#7 24563437#0 24563436#0 -370672197#8 -370672197#5 -993538724 993538722#0"/>
    </vehicle>
    <vehicle id="bike.26" depart="37.60">
        <route edges="712992080#5 995113419 570859666#0 570859666#2 446922583#1 722082942 447141131#0 447141131#2 446922589 24583333#2 446922584#0 446922586#0 995113418 -712992080#8 -712992080#4 -712992080#0 995113417#0 446922582#6 446922582#8 139069980#0 139069980#1 139069980#2 -235103526#2 -235103526#1"/>
    </vehicle>
    <vehicle id="bike.27" depart="38.80">
        <route edges="-717531848#4 -699609064 235103526#2 -139069980#3 -139069980#1 -139069980#0 446922582#9 581989173#0 581989173#1 581989173#2 581989173#4 581989173#5 44831985#1 116046165#0 745652418#1"/>
    </vehicle>
    <vehicle id="bike.28" depart="43.50">
        <route edges="706970966#0 23134098#4 116046168#0 24577121#7 24577121#8 24577121#9 24577121#10 24577121#1 24577360#0 656933877#9 717512502#0"/>
    </vehicle>
    <vehicle id="bike.29" depart="43.80">
        <route edges="-998790358#7 -998790358#0 998790353#0 998790353#2 998790352#0 998790352#1 998790352#2 998790358#0 998790358#1 998790358#8 998790358#10 998790358#11 998790358#18 998790351#0 447141131#0 447141131#2 446922589 24583333#2 447602096#0 447602096#3 447602095 80499271#0 80499271#1 80499271#3 446856065 447135853#0 447135853#1 293530132#0 293530132#6 585446279#0 585446279#1 973071399#2 1268938225 585446280#0 585446280#1"/>
    </vehicle>
    <vehicle id="bike.30" depart="44.70">
        <route edges="-370672197#5 -370672197#4 -370672197#2 -370672197#1 712992080#5 995113419 570859666#0 656933875 656933877#0 656933877#5 24577358#0 24577121#4 24577121#6 24577121#7 24577121#8 24577121#9 579781482#0 582759331#0"/>
    </vehicle>
    <vehicle id="bike.31" depart="44.80">
        <route edges="1248027223#0 1248027223#1 581989173#2 24563446#0 43540281#1 43540281#2 -1078382397 1078382396#2 998197439#1 582776170#0 582776170#2 1296316293#0 1296316293#1 973071398 995113416#0 446922582#6 -1137574037"/>
    </vehicle>
    <vehicle id="bike.32" depart="47.60">
        <route edges="446922582#0 995113416#6 995113417#0 80499762#8 80499762#16 446856066 154355886"/>
    </vehicle>
    <vehicle id="bike.33" depart="50.60">
        <route edges="1282119227 23134098#0 23134098#1 23134098#3 23134098#4 23134098#6 23134098#7 656933873 656933872#0 582461171#0 581989173#0 581989173#1 581989173#2 581989173#4 581989173#5 44831985#1 116046165#0 745652418#1"/>
    </vehicle>
    <vehicle id="bike.34" depart="50.60">
        <route edges="-1074764284#1 -24583593#4 998790358#18 998790351#0 447141131#0 447141131#2 446922589 24583333#2 447602096#0 447602096#3 447602095 80499271#0 80499271#1 80499271#3 446856065 446922582#0 995113416#6"/>
    </vehicle>
    <vehicle id="bike.35" depart="50.90">
        <route edges="706970966#0 23134098#4 23134098#6 23134098#7 656933873 656933872#0 582461171#0 581989173#0 581989173#1 581989173#2 581989173#4 581989173#5 680551206#0 680551212 582461172#0 582461172#3 680551211 680551207 23134098#0 -537797267#1"/>
    </vehicle>
    <vehicle id="bike.36" depart="52.20">
        <route edges="447602098 80499271#0 80499271#1 80499271#3 446856065 446922582#0 446922582#6 446922582#8 139069980#0 139069980#1 -717531847#3 -717531847#2 -717531847#1 -717531847#0 717531848#2"/>
    </vehicle>
    <vehicle id="bike.37" depart="55.50">
        <route edges="-998790358#10 -998790358#9 1121186660#0 1121186661 1121186660#2 998790358#10 998790358#11 998790358#18 998790351#0 447141131#0 447141131#2 446922589 24583333#2 446922584#0 446922586#0 446922586#1 570859666#0 656933875 656933877#0 656933877#5 656933877#9 656933877#13 656933877#19 24563433 656933872#0 582461171#0 581989173#0 581989173#1 581989173#2"/>
    </vehicle>
    <vehicle id="bike.38" depart="56.50">
        <route edges="582090037#0 80499271#1 778547435 446922581#2 446922586#0 446922586#1 570859666#0 570859666#2 446922583#1 712992079#0 1202691839#0 -998790358#19 -998790358#17 -998790358#10 -998790358#9"/>
    </vehicle>
    <vehicle id="bike.39" depart="57.20">
        <route edges="-423559880#0 139069980#7 562202340#6 562202340#7 1296316293#1 1296316292 293530132#6 585446279#0 585446279#1 973071399#2 1268938225 28103660#0 28103660#2 28103660#3 28103660#4 1075739137#0 1378612817"/>
    </vehicle>
    <vehicle id="bike.40" depart="57.50">
        <route edges="973071397 1248027223#0 1248027223#1 581989173#2 581989173#4 581989173#5 680551206#0 680551212 582461172#0 582461172#3 680551211 680551207 23134098#0 23134098#1 23134098#3 23134098#4 116046168#0 24577121#7 24577121#8 24577121#9 579781482#0 579781482#1 998790352#1 998790352#2 998790358#0 998790358#1 998790358#8 -1121186660#2"/>
    </vehicle>
    <vehicle id="bike.41" depart="57.90">
        <route edges="1306148229#4 446922583#1 722082942 447141131#0 447141131#2 446922589 24583333#2 446922584#0 446922586#0 995113418 -712992080#8 -712992080#4 -712992080#0 995113417#0 446922582#6 446922582#8 139069980#0 139069980#1 139069980#2 -717531848#4"/>
    </vehicle>
    <vehicle id="bike.42" depart="58.60">
        <route edges="1242128093 116046166#0 116046166#1 24577121#1 24577360#0 1306148229#1 1306148229#4 446922583#1 722082942 447141131#0 447141131#2 1076627689#0"/>
    </vehicle>
    <vehicle id="bike.43" depart="58.90">
        <route edges="-139069980#3 -717531847#3 -717531847#2 -717531847#1 -717531847#0"/>
    </vehicle>
    <vehicle id="bike.44" depart="59.10">
        <route edges="998790353#2 998790352#0 998790352#1 998790352#2 998790358#0 998790358#1 998790358#8 998790358#10 998790358#11 998790358#18 998790351#0 447141131#0 447141131#2 446922589 24583333#2 446922584#0 446922586#0 446922586#1 570859666#0 656933875 656933877#0 656933877#5 656933877#9 717512502#0"/>
    </vehicle>
    <vehicle id="bike.45" depart="59.50">
        <route edges="-1074764284#1 -24583593#4 998790358#18 998790351#0 447141131#0 447141131#2 446922589 24583333#2 446922584#0 446922586#0 446922586#1 570859666#0 656933875 656933877#0 656933877#5 656933877#9 656933877#13 656933877#19 24563433 656933872#0 582461171#0 581989173#0 581989173#1 581989173#2 581989173#4 581989173#5 680551206#0 680551212 296963059#0 296963059#1"/>
    </vehicle>
    <vehicle id="bike.46" depart="59.90">
        <route edges="-235103526#2 -717531842 -423559880#0 139069980#7 562202340#6 562202340#7 1296316293#1 973071398 995113416#0 995113416#6 712992080#0 712992080#1 712992080#5 995113419 570859666#0 570859666#2 446922583#1 712992079#0 1202691839#0 -998790358#19 -998790358#17 -998790358#10 -998790358#9 1121186660#0 1121186661 1121186660#2 998790358#10 998790358#11"/>
    </vehicle>
    <vehicle id="bike.47" depart="60.40">
        <route edges="998197439#0 998197439#1 582776170#0 582776170#2 1296316293#0 1296316293#1 973071398 1225342285 23134630#1 446856066 -1275260517 581546746"/>
    </vehicle>
    <vehicle id="bike.48" depart="60.80">
        <route edges="370672197#0 370672197#2 370672197#3 370672197#5 370672197#6 24563436#2 1306148229#1 24577361#1"/>
    </vehicle>
    <vehicle id="bike.49" depart="63.70">
        <route edges="296963058#0 296963058#3 680551211 680551207 23134098#0 23134098#1 23134098#3 23134098#4 116046168#0 24577121#7 24577121#8 24577121#9 579781482#0 579781482#1 998790352#1 998790352#2"/>
    </vehicle>
    <vehicle id="bike.50" depart="64.50">
        <route edges="1296316291"/>
    </vehicle>
    <vehicle id="bike.51" depart="66.60">
        <route edges="-1121186669#1 -1121186669#0 998790358#1 998790358#8 998790358#10 998790358#11 998790358#18 998790351#0 447141131#0 447141131#2 446922589 24583333#2 446922584#0 446922586#0 995113418 -712992080#8 -712992080#4 -712992080#0 995113417#0 80499762#8 80499762#16 446922581#0"/>
    </vehicle>
    <vehicle id="bike.52" depart="67.40">
        <route edges="-1078382397 1078382396#2 998197439#1 582776170#0 747485439#0 747485439#1 1248027223#0 1248027223#1 581989173#2 581989173#4 581989173#5 680551206#0 680551212 582461172#0 582461172#3 680551211 24563435#0"/>
    </vehicle>
    <vehicle id="bike.53" depart="68.10">
        <route edges="24563435#0 28616711#1 23134098#0 23134098#1 23134098#3 23134098#4 23134098#6 23134098#7 656933873 656933872#0 582461171#0 581989173#0 562202340#0 562202340#2 562202340#5 -139069980#8 -139069980#6 -717531848#4 -717531848#3 -717531848#2 717531847#0 717531847#1"/>
    </vehicle>
    <vehicle id="bike.54" depart="69.20">
        <route edges="446922581#1 446922581#2 446922586#0 995113418 -712992080#8 -712992080#4"/>
    </vehicle>
    <vehicle id="bike.55" depart="69.40">
        <route edges="28616711#1 23134098#0 23134098#1 23134098#3 23134098#4 23134098#6 23134098#7 24563437#0 24563436#0 -370672196"/>
    </vehicle>
    <vehicle id="bike.56" depart="69.50">
        <route edges="717531844#1 717531844#2 717531847#1 717531847#2 717531847#3 -139069980#1 -139069980#0 446922582#9 581989173#0 581989173#1 581989173#2 581989173#4 581989173#5 680551206#0 680551212 582461172#0 582461172#3 680551211 680551207 23134098#0 23134098#1 23134098#3 23134098#4 23134098#6 23134098#7 656933873 656933872#0 80499762#0 80499762#3 -993538722#1"/>
    </vehicle>
    <vehicle id="bike.57" depart="69.80">
        <route edges="-235103526#2 -717531842 -423559880#0 139069980#7 562202340#6 562202340#7 1296316293#1 973071398 995113416#0 995113416#6 712992080#0 712992080#1 370672197#0"/>
    </vehicle>
    <vehicle id="bike.58" depart="71.30">
        <route edges="-717531844#1 717531843 717531848#1 717531848#2 717531848#3 717531848#4 139069980#5 139069980#7 562202340#6 562202340#7 1296316293#1 973071398 995113416#0 995113416#6 712992080#0 712992080#1 712992080#5 995113419 570859666#0 570859666#2 446922583#1 712992079#0 1202691839#0 -998790358#19 -998790358#17 -998790358#10 -1121186660#2 -1121186660#1 -1121186660#0 998790358#8"/>
    </vehicle>
    <vehicle id="bike.59" depart="71.60">
        <route edges="717512502#0 -370672197#2 -370672197#1 712992080#5 995113419 570859666#0 656933875 656933877#0 656933877#5 24577358#0 24577121#4 24577121#6 24577121#7 24577121#8 24577121#9 579781482#0"/>
    </vehicle>
    <vehicle id="bike.60" depart="73.90">
        <route edges="-717531842 -423559880#0 -139069980#6 -717531848#4 -717531848#3 -717531848#2 717531847#0"/>
    </vehicle>
    <vehicle id="bike.61" depart="74.50">
        <route edges="1202691839#0 998790351#0 447141131#0 447141131#2 446922589 24583333#2 446922584#0 446922586#0 446922586#1 570859666#0 656933875 656933877#0 656933877#5 656933877#9 656933877#13 656933877#19 24563433 656933872#0 582461171#0 581989173#0 581989173#1 581989173#2 24563446#0 43540281#1 43540281#2 -1078382397 1078382396#2 998197439#1 582776170#0 1248027226"/>
    </vehicle>
    <vehicle id="bike.62" depart="76.20">
        <route edges="-712992080#0 995113417#0 446922582#6 446922582#8 139069980#0 139069980#1 139069980#2 -235103526#2 -235103526#1 -235103526#0 -423559880#1"/>
    </vehicle>
    <vehicle id="bike.63" depart="77.00">
        <route edges="-139069980#3 -717531847#3 717531846 717531848#4 139069980#5 139069980#7 562202340#6 562202340#7 1296316293#1 1296316292 293530132#6 585446279#0 585446279#1 973071399#2 1268938225 28103660#0 28103660#2 28103660#3 28103660#4 28103660#6 28103660#7 28103660#8 1248079227"/>
    </vehicle>
    <vehicle id="bike.64" depart="81.10">
        <route edges="562202340#7 1296316293#1 1296316292 293530132#6 585446279#0 585446279#1 973071399#2 1268938225 28103660#0 28103660#2 28103660#3 28103660#4 28103660#6 28103660#7 28103660#8 1248079227"/>
    </vehicle>
    <vehicle id="bike.65" depart="81.50">
        <route edges="717531848#4 -139069980#3 -139069980#1 -139069980#0 446922582#9 581989173#0 562202340#0 562202340#2 973071396 973071395#0"/>
    </vehicle>
    <vehicle id="bike.66" depart="81.50">
        <route edges="1248027228 1248027233#0 1248027233#1 747485439#1 1248027223#0 1248027223#1 581989173#2 581989173#4 581989173#5 44831985#1 116046165#0 745652418#1"/>
    </vehicle>
    <vehicle id="bike.67" depart="81.50">
        <route edges="447602095 80499271#0 80499271#1 80499271#3 446856065 447135853#0 447135853#1 293530132#0 293530132#6 585446279#0 585446279#1 973071399#2 1268938225 28103660#0 28103660#2 28103660#3 28103660#4 28103660#6 28103660#7 28103660#8 1248079227"/>
    </vehicle>
    <vehicle id="bike.68" depart="81.80">
        <route edges="1134215441 80499782 446922581#0 446922581#1 446922581#2 446922586#0 446922586#1 570859666#0 656933875 656933877#0 24577361#1"/>
    </vehicle>
    <vehicle id="bike.69" depart="83.40">
        <route edges="-717531844#0 -423559880#1 -423559880#0 139069980#7 562202340#6 562202340#7 1296316293#1 973071398 995113416#0 995113416#6 712992080#0 712992080#1 712992080#5 995113419 570859666#0 570859666#2 446922583#1 722082942 447141131#0 447141131#2 446922589 24583333#2 446922584#0 446922586#0 995113418 -712992080#8 -712992080#4"/>
    </vehicle>
    <vehicle id="bike.70" depart="83.50">
        <route edges="720546573#0 24583593#0 24583593#2 998790358#18 998790351#0 447141131#0 447141131#2 446922589 24583333#2 446922584#0 446922586#0 995113418 -712992080#8 370672197#0 -1075704879 993538724 -370672197#4"/>
    </vehicle>
    <vehicle id="bike.71" depart="84.30">
        <route edges="-717531845 717531848#3 717531848#4 139069980#5 139069980#7 562202340#6 562202340#7 1296316293#1 973071398 1225342285 23134630#1 446922582#0"/>
    </vehicle>
    <vehicle id="bike.72" depart="84.30">
        <route edges="680551207 23134098#0 23134098#1 23134098#3 23134098#4 23134098#6 23134098#7 656933873 656933872#0 582461171#0 581989173#0 581989173#1 581989173#2 581989173#4"/>
    </vehicle>
    <vehicle id="bike.73" depart="85.10">
        <route edges="-717531841 717531844#2 717531847#1 717531847#2 717531847#3 -139069980#1 -139069980#0 446922582#9 581989173#0 581989173#1 581989173#2 581989173#4 581989173#5 680551206#0 680551212 582461172#0 582461172#3 680551211 680551207 23134098#0 23134098#1 23134098#3 23134098#4 23134098#6 23134098#7 656933873 656933872#0 80499762#0 80499762#3 -993538722#1"/>
    </vehicle>
    <vehicle id="bike.74" depart="85.10">
        <route edges="-24583594#1 24583593#2 998790358#18 998790351#0 447141131#0 447141131#2 446922589 24583333#2 446922584#0 446922586#0 446922586#1 570859666#0 656933875 656933877#0 656933877#5 656933877#9 656933877#13 656933877#19 24563433 656933872#0 582461171#0 581989173#0 581989173#1 581989173#2 581989173#4 581989173#5 745652418#0"/>
    </vehicle>
    <vehicle id="bike.75" depart="85.60">
        <route edges="712992077#0 24577121#9 579781482#0 579781482#1 998790352#1 998790352#2 998790358#0 998790358#1 998790358#8 998790358#10 998790358#11 24583593#4 24583593#5 -370672194#14"/>
    </vehicle>
    <vehicle id="bike.76" depart="85.70">
        <route edges="447135853#0 447135853#1 293530132#0 293530132#6 585446279#0 1296316291 973071398 995113416#0 995113416#6 712992080#0 712992080#1 712992080#5 995113419 570859666#0 570859666#2 446922583#1 712992079#0 1202691839#0 -998790358#19 -998790358#17 -998790358#10 -998790358#9 -998790358#7 -998790358#0 998790353#0 998790353#2"/>
    </vehicle>
    <vehicle id="bike.77" depart="85.70">
        <route edges="998790358#18 998790351#0 447141131#0 447141131#2 446922589 24583333#2 446922584#0 446922586#0 446922586#1 570859666#0 656933875 656933877#0 656933877#5 656933877#9 656933877#13 656933877#19 24563433 656933872#0 582461171#0 581989173#0 581989173#1 581989173#2 581989173#4 581989173#5 680551206#0 680551212 582461172#0 582461172#3 680551211"/>
    </vehicle>
    <vehicle id="bike.78" depart="88.20">
        <route edges="-745652418#1 116046165#1 677663227#1 581989173#5 680551206#0 680551212 582461172#0 582461172#3 680551211 680551207 23134098#0 23134098#1 23134098#3 23134098#4 23134098#6 23134098#7 656933873 656933872#0 582461171#0 581989173#0 562202340#0"/>
    </vehicle>
    <vehicle id="bike.79" depart="89.10">
        <route edges="-1121186669#0 998790358#1 998790358#8 998790358#10 998790358#11 24583593#4 24583593#5"/>
    </vehicle>
    <vehicle id="bike.80" depart="90.60">
        <route edges="699609064 717531848#4 139069980#5 139069980#7 562202340#6 562202340#7 1296316293#1 973071398 995113416#0 995113416#6 712992080#0 712992080#1 712992080#5 995113419 570859666#0 656933875 656933877#0"/>
    </vehicle>
    <vehicle id="bike.81" depart="91.50">
        <route edges="582461172#0 582461172#3 680551211 680551207 23134098#0 23134098#1 23134098#3 23134098#4 23134098#6 23134098#7 656933873 656933872#0 582461171#0 581989173#0 562202340#0 562202340#2 562202340#5 562202340#6 562202340#7 1296316293#1 1296316292 293530132#6 585446279#0 585446279#1 973071399#2 1268938225 28103660#0 28103660#2 28103660#3 28103660#4 28103660#6 28103660#7 28103660#8 1248079227"/>
    </vehicle>
    <vehicle id="bike.82" depart="92.70">
        <route edges="447135852 562439578#0 562439578#1 293530132#0 293530132#6 585446279#0 1296316291 973071398 995113416#0 995113416#6 712992080#0 712992080#1 712992080#5 995113419 570859666#0 656933875 656933877#0 656933877#5 656933877#9 717512502#0 -370672197#2 -370672197#1"/>
    </vehicle>
    <vehicle id="bike.83" depart="94.20">
        <route edges="447602095 80499271#0 80499271#1 80499271#3 446856065 446922582#0 446922582#6 446922582#8 139069980#0 139069980#1 -717531847#3 717531846"/>
    </vehicle>
    <vehicle id="bike.84" depart="95.50">
        <route edges="998197439#1 582776170#0 1248027226 1183619480 28103660#3 28103660#4 1075739137#0 1378612817"/>
    </vehicle>
    <vehicle id="bike.85" depart="95.70">
        <route edges="-1074764284#1 -24583593#4 998790358#18 998790351#0 447141131#0 447141131#2 446922589 24583333#2 447602096#0 447602096#3 447602095 80499271#0 80499271#1 80499271#3 80499781#0 80499781#1 581546746"/>
    </vehicle>
    <vehicle id="bike.86" depart="97.30">
        <route edges="24577358#0 24577121#4 116046169#0 23134098#7 656933873 656933872#0 582461171#0 581989173#0 562202340#0 562202340#2 562202340#5 -139069980#8 -139069980#6 -139069980#3 -717531847#3 -717531847#2 -717531847#1 -717531844#2 717531841"/>
    </vehicle>
    <vehicle id="bike.87" depart="97.80">
        <route edges="-717531844#2 -717531844#1 717531843 717531848#1 717531848#2 717531848#3 717531848#4 139069980#5 139069980#7 562202340#6 562202340#7 1296316293#1 973071398 995113416#0 446922582#6"/>
    </vehicle>
    <vehicle id="bike.88" depart="98.10">
        <route edges="43540281#1 43540281#2 -1078382397 1078382396#2 998197439#1 582776170#0 747485439#0 747485439#1 1248027223#0 1248027223#1 581989173#2 24563446#0 -116046165#1"/>
    </vehicle>
    <vehicle id="bike.89" depart="100.40">
        <route edges="296963058#0 296963058#3 680551211 680551207 23134098#0 23134098#1 23134098#3 23134098#4 23134098#6 23134098#7 24563437#0 24563436#0 24563436#2 1306148229#1 1306148229#4 446922583#1 722082942 447141131#0 447141131#2 446922589 24583333#2 447602096#0 447602096#3 447602095 80499271#0 80499271#1 80499271#3 80499781#0 370765174#0"/>
    </vehicle>
    <vehicle id="bike.90" depart="103.60">
        <route edges="1189610486 712992080#1 712992080#5 995113419 570859666#0 570859666#2 446922583#1 722082942 447141131#0 447141131#2 446922589 24583333#2 447602096#0 706854224"/>
    </vehicle>
    <vehicle id="bike.91" depart="103.70">
        <route edges="-998790358#0 998790353#0 998790353#2 998790352#0 998790352#1 998790352#2 998790358#0 998790358#1 1121186660#0 1121186661 1121186660#2 -998790358#9 -998790358#7"/>
    </vehicle>
    <vehicle id="bike.92" depart="106.20">
        <route edges="80499271#0 80499271#1 80499271#3 446856065 447135853#0 447135853#1 293530132#0 293530132#6 585446279#0 585446279#1 973071399#2 1268938225 28103660#0"/>
    </vehicle>
    <vehicle id="bike.93" depart="106.70">
        <route edges="370672196 24563436#2 1306148229#1 1306148229#4 446922583#1 712992079#0 1202691839#0 -998790358#19 24583593#4 24583593#5 24583593#8"/>
    </vehicle>
    <vehicle id="bike.94" depart="107.10">
        <route edges="562205292#0 1137574037 446922582#8 139069980#0 139069980#1 139069980#2 139069980#5 139069980#7 562202340#6 562202340#7 1296316293#1 973071398 995113416#0 995113416#6 712992080#0 712992080#1 712992080#5 995113419 570859666#0 570859666#2 446922583#1 722082942 447141131#0 447141131#2 1076627689#0"/>
    </vehicle>
    <vehicle id="bike.95" depart="110.70">
        <route edges="998790358#1 998790358#8 998790358#10 998790358#11 998790358#18 998790351#0 447141131#0 447141131#2 446922589 24583333#2 447602096#0 447602096#3 447602098"/>
    </vehicle>
    <vehicle id="bike.96" depart="110.70">