<?xml version='1.0' encoding='utf-8'?>
<routes>
    <trip id="car_blue.0" depart="0.00" from="24563436#2" to="720546573#3" />
    <trip id="car_blue.1" depart="1.30" from="1075734524#0" to="995113418" />
    <trip id="car_blue.2" depart="2.80" from="28616711#0" to="-537797267#1" />
    <trip id="car_blue.3" depart="3.20" from="447135852" to="1121186659" />
    <trip id="car_blue.4" depart="4.20" from="447135852" to="139069980#5" />
    <trip id="car_blue.5" depart="4.50" from="1134215441" to="370672197#3" />
    <trip id="car_blue.6" depart="5.20" from="562205292#0" to="717531846" />
    <trip id="car_blue.7" depart="5.30" from="-370672197#4" to="699609064" />
    <trip id="car_blue.8" depart="5.50" from="-706854224" to="1075739137#0" />
    <trip id="car_blue.9" depart="5.70" from="235103526#2" to="995113419" />
    <trip id="car_blue.10" depart="6.90" from="656933875" to="-1189610486" />
    <trip id="car_blue.11" depart="7.60" from="116046165#0" to="24563431#0" />
    <trip id="car_blue.12" depart="8.70" from="998197439#0" to="717531845" />
    <trip id="car_blue.13" depart="8.90" from="562205292#0" to="44831985#1" />
    <trip id="car_blue.14" depart="10.10" from="-712992080#0" to="293530132#0" />
    <trip id="car_blue.15" depart="10.40" from="28616711#0" to="-562499724#8" />
    <trip id="car_blue.16" depart="10.60" from="1121186669#1" to="-1078382396#1" />
    <trip id="car_blue.17" depart="11.90" from="582090037#0" to="998197439#1" />
    <trip id="car_blue.18" depart="11.90" from="1134215441" to="579781482#1" />
    <trip id="car_blue.19" depart="13.00" from="23134098#6" to="1121186659" />
    <trip id="car_blue.20" depart="13.40" from="993538722#0" to="998790352#1" />
    <trip id="car_blue.21" depart="13.70" from="296963058#0" to="80499762#3" />
    <trip id="car_blue.22" depart="15.10" from="581989173#4" to="80499271#3" />
    <trip id="car_blue.23" depart="15.50" from="712992080#5" to="24563431#0" />
    <trip id="car_blue.24" depart="16.20" from="447135852" to="296963059#1" />
    <trip id="car_blue.25" depart="16.90" from="-717531847#2" to="973071395#0" />
    <trip id="car_blue.26" depart="17.50" from="-998790358#9" to="-1121186669#1" />
    <trip id="car_blue.27" depart="17.70" from="537797267#0" to="-24577361#2" />
    <trip id="car_blue.28" depart="18.00" from="24583593#2" to="-712992080#8" />
    <trip id="car_blue.29" depart="19.00" from="1121186661" to="370765174#0" />
    <trip id="car_blue.30" depart="19.00" from="993538721#0" to="80499762#4" />
    <trip id="car_blue.31" depart="19.10" from="116046168#0" to="-562205292#0" />
    <trip id="car_blue.32" depart="19.70" from="717531844#2" to="1248079227" />
    <trip id="car_blue.33" depart="20.00" from="1189610486" to="1121186659" />
    <trip id="car_blue.34" depart="20.80" from="717531848#3" to="-24577361#2" />
    <trip id="car_blue.35" depart="20.80" from="581989173#1" to="235103526#2" />
    <trip id="car_blue.36" depart="20.90" from="998197439#0" to="154355886" />
    <trip id="car_blue.37" depart="22.00" from="80499271#1" to="-537797267#1" />
    <trip id="car_blue.38" depart="24.20" from="370672196" to="-235103526#2" />
    <trip id="car_blue.39" depart="24.50" from="-717531844#0" to="24563436#0" />
    <trip id="car_blue.40" depart="24.70" from="717531848#0" to="998790353#2" />
    <trip id="car_blue.41" depart="25.40" from="-116046165#1" to="993538724" />
    <trip id="car_blue.42" depart="25.70" from="582759331#2" to="-24577361#2" />
    <trip id="car_blue.43" depart="26.00" from="1282119227" to="28103660#8" />
    <trip id="car_blue.44" depart="26.00" from="1225342285" to="28103660#7" />
    <trip id="car_blue.45" depart="26.10" from="-1121186669#0" to="717531841" />
    <trip id="car_blue.46" depart="27.20" from="712992079#0" to="1121186669#1" />
    <trip id="car_blue.47" depart="27.20" from="296963058#0" to="24563435#2" />
    <trip id="car_blue.48" depart="27.70" from="-1121186659" to="-1075704879" />
    <trip id="car_blue.49" depart="28.10" from="-993538721#2" to="993538722#0" />
    <trip id="car_blue.50" depart="28.20" from="712992079#0" to="24563435#2" />
    <trip id="car_blue.51" depart="28.20" from="447602096#0" to="747485439#1" />
    <trip id="car_blue.52" depart="28.50" from="1282119227" to="24577115#0" />
    <trip id="car_blue.53" depart="28.70" from="562205292#0" to="-998790358#10" />
    <trip id="car_blue.54" depart="29.10" from="-24583594#1" to="1078382396#0" />
    <trip id="car_blue.55" depart="29.10" from="998790358#11" to="-1282119227" />
    <trip id="car_blue.56" depart="29.20" from="582090037#0" to="296963059#1" />
    <trip id="car_blue.57" depart="29.50" from="296963058#0" to="720546573#3" />
    <trip id="car_blue.58" depart="31.30" from="446922582#6" to="24563436#2" />
    <trip id="car_blue.59" depart="31.30" from="562205292#0" to="-370672197#4" />
    <trip id="car_blue.60" depart="32.50" from="24583593#2" to="296963059#1" />
    <trip id="car_blue.61" depart="33.10" from="717531842" to="-562499724#8" />
    <trip id="car_blue.62" depart="33.10" from="720546573#0" to="-537797267#1" />
    <trip id="car_blue.63" depart="34.80" from="-582759331#0" to="1076627689#0" />
    <trip id="car_blue.64" depart="35.10" from="1282119227" to="80499781#0" />
    <trip id="car_blue.65" depart="35.40" from="116046165#1" to="1121186659" />
    <trip id="car_blue.66" depart="36.30" from="24583593#4" to="656933877#0" />
    <trip id="car_blue.67" depart="36.50" from="-712992080#0" to="-24583593#3" />
    <trip id="car_blue.68" depart="37.50" from="582759331#1" to="28103660#10" />
    <trip id="car_blue.69" depart="41.50" from="717531848#2" to="717531841" />
    <trip id="car_blue.70" depart="41.70" from="562202340#7" to="1121186661" />
    <trip id="car_blue.71" depart="43.10" from="562202340#7" to="562202340#5" />
    <trip id="car_blue.72" depart="44.00" from="-24583593#10" to="296963059#1" />
    <trip id="car_blue.73" depart="44.60" from="712992077#0" to="-1121186660#0" />
    <trip id="car_blue.74" depart="45.20" from="-712992080#8" to="80499271#0" />
    <trip id="car_blue.75" depart="45.60" from="28616711#0" to="585446280#1" />
    <trip id="car_blue.76" depart="46.50" from="-24583594#1" to="24563435#0" />
    <trip id="car_blue.77" depart="47.50" from="-139069980#1" to="717531841" />
    <trip id="car_blue.78" depart="48.80" from="1121186660#0" to="1248027233#1" />
    <trip id="car_blue.79" depart="49.20" from="706970966#0" to="747485439#0" />
    <trip id="car_blue.80" depart="50.00" from="370672197#6" to="656933875" />
    <trip id="car_blue.81" depart="50.00" from="-1121186659" to="712992080#5" />
    <trip id="car_blue.82" depart="50.60" from="-717531847#2" to="717531848#3" />
    <trip id="car_blue.83" depart="52.20" from="-139069980#6" to="562202340#7" />
    <trip id="car_blue.84" depart="52.30" from="677663227#0" to="-139069980#6" />
    <trip id="car_blue.85" depart="52.50" from="656933877#19" to="585446280#1" />
    <trip id="car_blue.86" depart="53.10" from="-1121186669#1" to="-370672196" />
    <trip id="car_blue.87" depart="53.30" from="677663227#1" to="24583593#8" />
    <trip id="car_blue.88" depart="55.80" from="-895122213#1" to="-1282119227" />
    <trip id="car_blue.89" depart="56.10" from="537797267#0" to="585446280#1" />
    <trip id="car_blue.90" depart="56.50" from="-717531843" to="80499271#3" />
    <trip id="car_blue.91" depart="56.90" from="-712992080#0" to="1248027223#0" />
    <trip id="car_blue.92" depart="58.10" from="993538721#0" to="973071398" />
    <trip id="car_blue.93" depart="58.70" from="24563446#0" to="581989173#5" />
    <trip id="car_blue.94" depart="59.30" from="-745652418#1" to="296963059#0" />
    <trip id="car_blue.95" depart="60.40" from="-24583593#10" to="296963059#1" />
    <trip id="car_blue.96" depart="61.20" from="-1075704879" to="-717531847#2" />
    <trip id="car_blue.97" depart="63.20" from="-717531841" to="1078382397" />
    <trip id="car_blue.98" depart="64.70" from="80499762#16" to="28103660#10" />
    <trip id="car_blue.99" depart="64.70" from="-717531845" to="24583593#4" />
    <trip id="car_blue.100" depart="67.40" from="370672196" to="23134630#1" />
    <trip id="car_blue.101" depart="67.90" from="995113418" to="-582759331#0" />
    <trip id="car_blue.102" depart="68.30" from="116046165#1" to="1268938225" />
    <trip id="car_blue.103" depart="68.70" from="-717531845" to="-717531848#3" />
    <trip id="car_blue.104" depart="69.10" from="-24583594#1" to="998790353#0" />
    <trip id="car_blue.105" depart="69.60" from="-370672194#14" to="-370672196" />
    <trip id="car_blue.106" depart="73.50" from="-370672197#8" to="585446280#1" />
    <trip id="car_blue.107" depart="75.70" from="-1121186669#0" to="116046165#1" />
    <trip id="car_blue.108" depart="75.90" from="-24583594#1" to="1121186659" />
    <trip id="car_blue.109" depart="76.80" from="998790351#0" to="235103526#2" />
    <trip id="car_blue.110" depart="76.90" from="293530132#0" to="1121186659" />
    <trip id="car_blue.111" depart="76.90" from="-706854224" to="998790358#8" />
    <trip id="car_blue.112" depart="77.90" from="-235103526#1" to="-562205292#0" />
    <trip id="car_blue.113" depart="79.50" from="1248031153" to="370672197#2" />
    <trip id="car_blue.114" depart="81.10" from="998790351#0" to="-1282119227" />
    <trip id="car_blue.115" depart="81.30" from="998197439#1" to="1183619480" />
    <trip id="car_blue.116" depart="82.20" from="370672197#3" to="998790358#1" />
    <trip id="car_blue.117" depart="83.90" from="-370672194#14" to="717531844#2" />
    <trip id="car_blue.118" depart="84.90" from="581989173#0" to="1078382396#2" />
    <trip id="car_blue.119" depart="84.90" from="-998790358#17" to="699609064" />
    <trip id="car_blue.120" depart="85.50" from="23134098#7" to="370765174#0" />
    <trip id="car_blue.121" depart="85.60" from="-998790358#9" to="656933877#13" />
    <trip id="car_blue.122" depart="85.90" from="-24583593#4" to="-998790358#7" />
    <trip id="car_blue.123" depart="87.30" from="24563437#0" to="43540281#3" />
    <trip id="car_blue.124" depart="87.50" from="562202340#2" to="995113419" />
    <trip id="car_blue.125" depart="87.70" from="-423559880#1" to="43540281#3" />
    <trip id="car_blue.126" depart="88.20" from="-24583593#10" to="-139069980#3" />
    <trip id="car_blue.127" depart="88.30" from="582759331#0" to="656933877#13" />
    <trip id="car_blue.128" depart="88.30" from="677663227#0" to="-717531843" />
    <trip id="car_blue.129" depart="88.50" from="537797267#0" to="24577115#0" />
    <trip id="car_blue.130" depart="92.80" from="-993538721#2" to="1225342285" />
    <trip id="car_blue.131" depart="93.80" from="717531847#0" to="28103660#3" />
    <trip id="car_blue.132" depart="93.90" from="1296316293#1" to="80499781#1" />
    <trip id="car_blue.133" depart="94.40" from="1189610486" to="24563435#0" />
    <trip id="car_blue.134" depart="95.00" from="-1121186660#0" to="28103660#9" />
    <trip id="car_blue.135" depart="96.10" from="717531847#0" to="1121186669#0" />
    <trip id="car_blue.136" depart="96.70" from="-370672197#5" to="581546746" />
    <trip id="car_blue.137" depart="96.90" from="24563433" to="-370672196" />
    <trip id="car_blue.138" depart="97.60" from="562202340#7" to="296963059#1" />
    <trip id="car_blue.139" depart="97.80" from="23134098#7" to="717531848#2" />
    <trip id="car_blue.140" depart="98.50" from="24577360#0" to="1296316293#1" />
    <trip id="car_blue.141" depart="98.70" from="24563436#0" to="995113419" />
    <trip id="car_blue.142" depart="99.20" from="446856065" to="1248027223#0" />
    <trip id="car_blue.143" depart="99.60" from="-1121186659" to="-116046165#1" />
    <trip id="car_blue.144" depart="100.00" from="712992080#0" to="1248027215" />
    <trip id="car_blue.145" depart="100.00" from="582090037#0" to="-1121186670" />
    <trip id="car_blue.146" depart="100.40" from="747485439#1" to="1202691839#0" />
    <trip id="car_blue.147" depart="100.80" from="-24583593#10" to="1225342285" />
    <trip id="car_blue.148" depart="101.00" from="116046166#0" to="1248027223#0" />
    <trip id="car_blue.149" depart="101.10" from="447135853#1" to="370672197#3" />
    <trip id="car_blue.150" depart="101.90" from="1078382396#2" to="1183619480" />
    <trip id="car_blue.151" depart="103.30" from="-1078382397" to="116046165#0" />
    <trip id="car_blue.152" depart="103.40" from="139069980#7" to="720546573#2" />
    <trip id="car_blue.153" depart="104.10" from="296963058#0" to="80499762#0" />
    <trip id="car_blue.154" depart="104.30" from="-993538724" to="562205292#1" />
    <trip id="car_blue.155" depart="106.70" from="370672196" to="998790353#0" />
    <trip id="car_blue.156" depart="106.90" from="1189610486" to="1296316293#0" />
    <trip id="car_blue.157" depart="107.30" from="-24583593#10" to="44831985#2" />
    <trip id="car_blue.158" depart="108.40" from="1134215441" to="24583593#2" />
    <trip id="car_blue.159" depart="109.10" from="717531843" to="686696028#2" />
    <trip id="car_blue.160" depart="109.40" from="712992080#5" to="28103660#10" />
    <trip id="car_blue.161" depart="109.40" from="1075734524#0" to="-1189610486" />
    <trip id="car_blue.162" depart="110.00" from="998790358#18" to="130987222#3" />
    <trip id="car_blue.163" depart="110.70" from="-717531848#0" to="582776170#0" />
    <trip id="car_blue.164" depart="111.40" from="-24583593#10" to="116046169#0" />
    <trip id="car_blue.165" depart="114.00" from="23134098#7" to="-717531845" />
    <trip id="car_blue.166" depart="114.20" from="1306148229#4" to="28103660#10" />
    <trip id="car_blue.167" depart="115.40" from="-717531841" to="130987222#3" />
    <trip id="car_blue.168" depart="115.50" from="446922581#2" to="24563431#0" />
    <trip id="car_blue.169" depart="116.90" from="-1078382397" to="579781482#0" />
    <trip id="car_blue.170" depart="117.20" from="717531847#1" to="296963059#1" />
    <trip id="car_blue.171" depart="118.70" from="-717531844#2" to="995113416#0" />
    <trip id="car_blue.172" depart="119.50" from="582090037#0" to="24563435#2" />
    <trip id="car_blue.173" depart="119.60" from="973071397" to="28103660#10" />
    <trip id="car_blue.174" depart="119.60" from="446922582#0" to="24583594#0" />
    <trip id="car_blue.175" depart="120.40" from="-423559880#0" to="562202340#2" />
    <trip id="car_blue.176" depart="121.10" from="1121186669#0" to="717531842" />
    <trip id="car_blue.177" depart="121.40" from="-116046165#1" to="-717531844#0" />
    <trip id="car_blue.178" depart="122.10" from="1282119227" to="717531841" />
    <trip id="car_blue.179" depart="122.30" from="-24583594#1" to="-712992080#4" />
    <trip id="car_blue.180" depart="122.70" from="-745652418#1" to="717531841" />
    <trip id="car_blue.181" depart="123.20" from="-1121186660#2" to="-562499724#8" />
    <trip id="car_blue.182" depart="124.00" from="-370672197#8" to="1075739137#0" />
    <trip id="car_blue.183" depart="125.10" from="-706854224" to="717531848#1" />
    <trip id="car_blue.184" depart="125.40" from="998197439#0" to="24577115#0" />
    <trip id="car_blue.185" depart="125.60" from="-1078382397" to="717531848#4" />
    <trip id="car_blue.186" depart="126.30" from="-235103526#0" to="370765174#0" />
    <trip id="car_blue.187" depart="126.60" from="717531847#3" to="80499271#3" />
    <trip id="car_blue.188" depart="126.60" from="447602098" to="-24583593#1" />
    <trip id="car_blue.189" depart="127.00" from="993538721#0" to="581989173#2" />
    <trip id="car_blue.190" depart="127.70" from="582090037#0" to="973071384#1" />
    <trip id="car_blue.191" depart="127.70" from="993538724" to="973071384#1" />
    <trip id="car_blue.192" depart="128.30" from="-895122213#1" to="745652418#1" />
    <trip id="car_blue.193" depart="128.40" from="-745652418#1" to="-370672197#5" />
    <trip id="car_blue.194" depart="129.00" from="699609064" to="116046165#1" />
    <trip id="car_blue.195" depart="129.60" from="370672196" to="1296316293#0" />
    <trip id="car_blue.196" depart="131.30" from="1296316291" to="-562205292#0" />
    <trip id="car_blue.197" depart="131.50" from="-706854224" to="995113418" />
    <trip id="car_blue.198" depart="132.40" from="370672196" to="24577115#0" />
    <trip id="car_blue.199" depart="132.60" from="1121186661" to="154355886" />
    <trip id="car_blue.200" depart="134.70" from="562202340#6" to="995113416#6" />
    <trip id="car_blue.201" depart="135.10" from="116046169#0" to="581546746" />
    <trip id="car_blue.202" depart="135.20" from="712992077#0" to="-1121186669#0" />
    <trip id="car_blue.203" depart="135.20" from="998197439#0" to="370765174#0" />
    <trip id="car_blue.204" depart="135.40" from="717512502#0" to="447602096#3" />
    <trip id="car_blue.205" depart="135.80" from="677663227#0" to="-993538722#1" />
    <trip id="car_blue.206" depart="136.10" from="28616711#1" to="1121186670" />
    <trip id="car_blue.207" depart="136.20" from="995113418" to="1248027233#1" />
    <trip id="car_blue.208" depart="136.30" from="706970966#0" to="-370672197#5" />
    <trip id="car_blue.209" depart="137.00" from="717531847#3" to="717531848#3" />
    <trip id="car_blue.210" depart="138.10" from="1248027223#0" to="80499762#8" />
    <trip id="car_blue.211" depart="138.10" from="-895122213#1" to="-24583593#1" />
    <trip id="car_blue.212" depart="140.20" from="-717531844#1" to="747485439#0" />
    <trip id="car_blue.213" depart="141.40" from="80499785" to="435426352#0" />
    <trip id="car_blue.214" depart="142.50" from="717531847#3" to="717531841" />
    <trip id="car_blue.215" depart="143.80" from="1282119227" to="717531846" />
    <trip id="car_blue.216" depart="143.90" from="579781482#0" to="745652418#0" />
    <trip id="car_blue.217" depart="144.80" from="706970966#0" to="717531841" />
    <trip id="car_blue.218" depart="147.00" from="562205292#1" to="24583593#5" />
    <trip id="car_blue.219" depart="147.10" from="706970966#0" to="582759331#1" />
    <trip id="car_blue.220" depart="147.20" from="139069980#0" to="-1121186670" />
    <trip id="car_blue.221" depart="147.80" from="446922582#8" to="706854224" />
    <trip id="car_blue.222" depart="149.40" from="-370672197#8" to="130987222#3" />
    <trip id="car_blue.223" depart="149.50" from="-139069980#8" to="-562499724#8" />
    <trip id="car_blue.224" depart="150.40" from="24583593#5" to="995113418" />
    <trip id="car_blue.225" depart="150.90" from="712992077#0" to="585446280#1" />
    <trip id="car_blue.226" depart="152.30" from="717531842" to="562202340#2" />
    <trip id="car_blue.227" depart="152.60" from="23134630#1" to="582461172#3" />
    <trip id="car_blue.228" depart="153.40" from="-895122213#1" to="562202340#5" />
    <trip id="car_blue.229" depart="153.40" from="712992077#0" to="706854224" />
    <trip id="car_blue.230" depart="153.50" from="-717531841" to="154355886" />
    <trip id="car_blue.231" depart="154.10" from="-706854224" to="745652418#0" />
    <trip id="car_blue.232" depart="156.30" from="993538722#0" to="745652418#1" />
    <trip id="car_blue.233" depart="156.50" from="446922582#0" to="80499762#3" />
    <trip id="car_blue.234" depart="157.30" from="562439578#0" to="-582090037#1" />
    <trip id="car_blue.235" depart="158.00" from="1248031153" to="23134098#1" />
    <trip id="car_blue.236" depart="158.30" from="-895122213#1" to="-24583593#1" />
    <trip id="car_blue.237" depart="158.50" from="139069980#0" to="44831985#2" />
    <trip id="car_blue.238" depart="159.50" from="-24583594#1" to="581546746" />
    <trip id="car_blue.239" depart="161.50" from="-717512501" to="720546573#2" />
    <trip id="car_blue.240" depart="161.80" from="677663227#0" to="1121186659" />
    <trip id="car_blue.241" depart="162.10" from="24563436#0" to="-537797267#1" />
    <trip id="car_blue.242" depart="162.60" from="717531845" to="370765174#0" />
    <trip id="car_blue.243" depart="163.30" from="998790358#11" to="1121186659" />
    <trip id="car_blue.244" depart="164.10" from="562202340#0" to="154355886" />
    <trip id="car_blue.245" depart="165.10" from="1075734524#0" to="1075739137#2" />
    <trip id="car_blue.246" depart="165.10" from="446856065" to="80499762#4" />
    <trip id="car_blue.247" depart="166.90" from="1189610486" to="562202340#0" />
    <trip id="car_blue.248" depart="167.60" from="562205292#0" to="562202340#5" />
    <trip id="car_blue.249" depart="167.90" from="582090037#0" to="1074764284#0" />
    <trip id="car_blue.250" depart="168.40" from="-24583593#10" to="-1275260517" />
    <trip id="car_blue.251" depart="168.60" from="80499762#8" to="998790358#18" />
    <trip id="car_blue.252" depart="170.20" from="973071398" to="995113417#4" />
    <trip id="car_blue.253" depart="170.90" from="370672197#6" to="585446279#1" />
    <trip id="car_blue.254" depart="170.90" from="-1121186669#2" to="-998790358#9" />
    <trip id="car_blue.255" depart="171.30" from="1248027228" to="1248079227" />
    <trip id="car_blue.256" depart="172.20" from="370672196" to="1075739137#0" />
    <trip id="car_blue.257" depart="172.80" from="720546573#0" to="-537797267#1" />
    <trip id="car_blue.258" depart="173.20" from="1121186661" to="24583594#0" />
    <trip id="car_blue.259" depart="173.70" from="-1121186669#1" to="-423559880#0" />
    <trip id="car_blue.260" depart="174.10" from="717531848#2" to="717531844#1" />
    <trip id="car_blue.261" depart="175.10" from="1075734524#0" to="745652418#0" />
    <trip id="car_blue.262" depart="176.30" from="435426351#0" to="585446280#1" />
    <trip id="car_blue.263" depart="177.10" from="-993538722#1" to="1137574037" />
    <trip id="car_blue.264" depart="177.40" from="998790358#11" to="656933875" />
    <trip id="car_blue.265" depart="178.10" from="-423559880#1" to="717531848#1" />
    <trip id="car_blue.266" depart="178.30" from="447602098" to="706854224" />
    <trip id="car_blue.267" depart="183.40" from="-895122213#1" to="579781482#1" />
    <trip id="car_blue.268" depart="183.40" from="116046166#0" to="581546746" />
    <trip id="car_blue.269" depart="183.60" from="717531842" to="720546573#3" />
    <trip id="car_blue.270" depart="183.90" from="-370672194#14" to="-24583593#3" />
    <trip id="car_blue.271" depart="184.20" from="717531848#0" to="-582759331#0" />
    <trip id="car_blue.272" depart="186.50" from="-582759331#2" to="24583593#8" />
    <trip id="car_blue.273" depart="186.70" from="-998790358#17" to="747485439#0" />
    <trip id="car_blue.274" depart="187.20" from="370672196" to="296963059#1" />
    <trip id="car_blue.275" depart="187.50" from="998197439#0" to="24583594#0" />
    <trip id="car_blue.276" depart="189.90" from="296963058#3" to="154355886" />
    <trip id="car_blue.277" depart="190.20" from="-139069980#3" to="656933877#13" />
    <trip id="car_blue.278" depart="192.80" from="562202340#0" to="745652418#1" />
    <trip id="car_blue.279" depart="193.10" from="-1121186659" to="552890990#1" />
    <trip id="car_blue.280" depart="194.40" from="562202340#5" to="1306148229#1" />
    <trip id="car_blue.281" depart="194.60" from="370672197#0" to="973071399#2" />
    <trip id="car_blue.282" depart="195.40" from="712992080#0" to="-562205292#0" />
    <trip id="car_blue.283" depart="195.80" from="-139069980#8" to="717531843" />
    <trip id="car_blue.284" depart="197.90" from="44831985#1" to="24563431#0" />
    <trip id="car_blue.285" depart="198.70" from="995113417#0" to="370672197#5" />
    <trip id="car_blue.286" depart="199.00" from="-1074764284#1" to="995113418" />
    <trip id="car_blue.287" depart="199.70" from="447602098" to="973071399#2" />
    <trip id="car_blue.288" depart="199.90" from="581989173#5" to="993538723#0" />
    <trip id="car_blue.289" depart="200.10" from="296963058#0" to="-717531846" />
    <trip id="car_blue.290" depart="203.40" from="-1137574037" to="446922582#0" />
    <trip id="car_blue.291" depart="205.50" from="1121186669#2" to="-1189610486" />
    <trip id="car_blue.292" depart="207.40" from="-706854224" to="995113417#0" />
    <trip id="car_blue.293" depart="208.10" from="717531847#3" to="-24583593#1" />
    <trip id="car_blue.294" depart="209.30" from="717531844#1" to="-562499724#8" />
    <trip id="car_blue.295" depart="210.00" from="656933877#9" to="1121186659" />
    <trip id="car_blue.296" depart="211.00" from="582759331#1" to="447135853#0" />
    <trip id="car_blue.297" depart="211.40" from="-24583594#1" to="24577115#0" />
    <trip id="car_blue.298" depart="212.60" from="1121186660#0" to="562202340#2" />
    <trip id="car_blue.299" depart="213.30" from="-370672197#4" to="44831985#1" />
    <trip id="car_blue.300" depart="216.10" from="712992077#0" to="24583593#8" />
    <trip id="car_blue.301" depart="216.70" from="24563435#0" to="745652418#1" />
    <trip id="car_blue.302" depart="216.70" from="23134098#7" to="293530132#0" />
    <trip id="car_blue.303" depart="216.90" from="1296316291" to="585446280#1" />
    <trip id="car_blue.304" depart="218.40" from="706970966#0" to="43540281#1" />
    <trip id="car_blue.305" depart="219.40" from="1306148229#4" to="154355886" />
    <trip id="car_blue.306" depart="219.40" from="-1121186669#0" to="1202691839#0" />
    <trip id="car_blue.307" depart="219.70" from="562205292#0" to="-562205292#1" />
    <trip id="car_blue.308" depart="219.70" from="24563436#2" to="435426351#0" />
    <trip id="car_blue.309" depart="221.40" from="23134630#1" to="-562205292#0" />
    <trip id="car_blue.310" depart="221.40" from="-370672197#1" to="80499762#0" />
    <trip id="car_blue.311" depart="221.50" from="717512502#0" to="24583594#0" />
    <trip id="car_blue.312" depart="221.60" from="-139069980#3" to="-116046165#1" />
    <trip id="car_blue.313" depart="223.20" from="-24583593#4" to="154355886" />
    <trip id="car_blue.314" depart="224.00" from="-24583593#10" to="447602096#3" />
    <trip id="car_blue.315" depart="224.20" from="296963058#0" to="-998790358#9" />
    <trip id="car_blue.316" depart="226.60" from="-895122213#1" to="-235103526#0" />
    <trip id="car_blue.317" depart="226.80" from="24577358#0" to="-370672196" />
    <trip id="car_blue.318" depart="227.00" from="-706854224" to="1306148229#1" />
    <trip id="car_blue.319" depart="227.10" from="-235103526#0" to="745652418#0" />
    <trip id="car_blue.320" depart="227.40" from="139069980#1" to="44831985#2" />
    <trip id="car_blue.321" depart="228.60" from="446922581#2" to="1076627689#0" />
    <trip id="car_blue.322" depart="228.60" from="998197439#0" to="720546573#3" />
    <trip id="car_blue.323" depart="228.90" from="-712992080#8" to="-582759331#2" />
    <trip id="car_blue.324" depart="228.90" from="582461172#0" to="370765174#0" />
    <trip id="car_blue.325" depart="229.10" from="717531848#2" to="-370672196" />
    <trip id="car_blue.326" depart="229.30" from="-24583594#1" to="-582090037#1" />
    <trip id="car_blue.327" depart="229.70" from="23134630#1" to="562202340#7" />
    <trip id="car_blue.328" depart="232.00" from="717531848#0" to="995113417#0" />
    <trip id="car_blue.329" depart="232.10" from="423559880#0" to="24577115#0" />
    <trip id="car_blue.330" depart="232.40" from="116046168#0" to="44831985#2" />
    <trip id="car_blue.331" depart="232.70" from="562205292#0" to="1306148229#4" />
    <trip id="car_blue.332" depart="233.60" from="-1075704879" to="-370672196" />
    <trip id="car_blue.333" depart="234.80" from="-1078382396#1" to="995113419" />
    <trip id="car_blue.334" depart="236.10" from="717531846" to="-717531845" />
    <trip id="car_blue.335" depart="237.80" from="447135853#1" to="446922582#9" />
    <trip id="car_blue.336" depart="238.10" from="677663227#0" to="-712992080#0" />
    <trip id="car_blue.337" depart="238.90" from="23134098#6" to="-1121186669#1" />
    <trip id="car_blue.338" depart="242.30" from="-582759331#1" to="-562205292#0" />
    <trip id="car_blue.339" depart="242.30" from="562439578#1" to="995113416#6" />
    <trip id="car_blue.340" depart="242.50" from="23134098#4" to="717531848#4" />
    <trip id="car_blue.341" depart="242.60" from="370672196" to="-717531843" />
    <trip id="car_blue.342" depart="243.10" from="296963058#3" to="717531844#0" />
    <trip id="car_blue.343" depart="245.70" from="446922582#8" to="581546746" />
    <trip id="car_blue.344" depart="246.80" from="998790352#0" to="717531847#3" />
    <trip id="car_blue.345" depart="247.30" from="582090037#0" to="370672197#6" />
    <trip id="car_blue.346" depart="247.50" from="293530132#0" to="1121186659" />
    <trip id="car_blue.347" depart="247.60" from="24563433" to="24577115#0" />
    <trip id="car_blue.348" depart="247.90" from="370672197#0" to="423559880#1" />
    <trip id="car_blue.349" depart="248.70" from="562202340#2" to="717531841" />
    <trip id="car_blue.350" depart="249.70" from="24563433" to="581546746" />
    <trip id="car_blue.351" depart="251.00" from="1121186660#2" to="-1282119227" />
    <trip id="car_blue.352" depart="252.20" from="778547435" to="154355886" />
    <trip id="car_blue.353" depart="252.20" from="23134098#6" to="24577358#0" />
    <trip id="car_blue.354" depart="253.30" from="973071398" to="1242128093" />
    <trip id="car_blue.355" depart="254.40" from="562205292#0" to="-1121186669#0" />
    <trip id="car_blue.356" depart="254.70" from="1075734524#0" to="-712992080#4" />
    <trip id="car_blue.357" depart="256.10" from="-717531847#1" to="80499762#4" />
    <trip id="car_blue.358" depart="256.50" from="1137574037" to="370765174#0" />
    <trip id="car_blue.359" depart="257.00" from="717512502#0" to="447602095" />
    <trip id="car_blue.360" depart="257.10" from="-370672197#4" to="1121186659" />