<?xml version="1.0" encoding="UTF-8"?>

<!-- generated on 2026-03-23T20:22:28.650549+05:30 by Eclipse SUMO netconvert 1.26.0
<netconvertConfiguration xmlns:xsi="http://www.w3.org/2001/XMLSchema-instance" xsi:noNamespaceSchemaLocation="http://sumo.dlr.de/xsd/netconvertConfiguration.xsd">

    <input>
        <type-files value="C:\Program Files (x86)\Eclipse\Sumo\data\typemap\osmNetconvert.typ.xml"/>
        <osm-files value="C:\Users\welcome\Downloads\fixed_aqi_simulation_v11_synced_detection\city\map.osm"/>
    </input>

    <output>
        <output-file value="C:\Users\welcome\Downloads\fixed_aqi_simulation_v11_synced_detection\city\city.net.xml"/>
        <output.street-names value="true"/>
    </output>

    <projection>
        <proj.utm value="true"/>
    </projection>

    <processing>
        <geometry.remove value="true"/>
        <roundabouts.guess value="true"/>
    </processing>

    <building_defaults>
        <default.lanewidth value="3.5"/>
        <default.speed value="13.89"/>
    </building_defaults>

    <tls_building>
        <tls.discard-loaded value="true"/>
        <tls.discard-simple value="true"/>
    </tls_building>

    <edge_removal>
        <keep-edges.by-type value="highway.motorway,highway.motorway_link,highway.trunk,highway.trunk_link,highway.primary,highway.primary_link,highway.secondary,highway.secondary_link,highway.tertiary,highway.tertiary_link,highway.residential,highway.unclassified"/>
    </edge_removal>

    <junctions>
        <no-turnarounds value="true"/>
        <junctions.join value="true"/>
        <junctions.join-dist value="15"/>
    </junctions>

    <report>
        <error-log value="C:\Users\welcome\Downloads\fixed_aqi_simulation_v11_synced_detection\city\netconvert_log.txt"/>
    </report>

</netconvertConfiguration>
-->

<net version="1.20" junctionCornerDetail="5" limitTurnSpeed="5.50" xmlns:xsi="http://www.w3.org/2001/XMLSchema-instance" xsi:noNamespaceSchemaLocation="http://sumo.dlr.de/xsd/net_file.xsd">

    <location netOffset="-716907.09,-3165590.89" convBoundary="0.00,0.00,2962.62,3282.42" origBoundary="77.212215,28.583037,77.260806,28.668686" projParameter="+proj=utm +zone=43 +ellps=WGS84 +datum=WGS84 +units=m +no_defs"/>

    <type id="highway.residential" priority="3" numLanes="1" speed="13.89" disallow="tram rail_urban rail rail_electric rail_fast ship container cable_car subway aircraft wheelchair scooter drone" oneway="0"/>
    <type id="highway.secondary" priority="11" numLanes="1" speed="27.78" disallow="tram rail_urban rail rail_electric rail_fast ship container cable_car subway aircraft wheelchair scooter drone" oneway="0"/>
    <type id="highway.secondary_link" priority="6" numLanes="1" speed="22.22" disallow="tram rail_urban rail rail_electric rail_fast ship container cable_car subway aircraft wheelchair scooter drone" oneway="0"/>
    <type id="highway.tertiary" priority="10" numLanes="1" speed="22.22" disallow="tram rail_urban rail rail_electric rail_fast ship container cable_car subway aircraft wheelchair scooter drone" oneway="0"/>
    <type id="highway.unclassified" priority="4" numLanes="1" speed="13.89" disallow="tram rail_urban rail rail_electric rail_fast ship container cable_car subway aircraft wheelchair scooter drone" oneway="0"/>

    <edge id=":10255293266_0" function="internal">
        <lane id=":10255293266_0_0" index="0" disallow="tram rail_urban rail rail_electric rail_fast ship container cable_car subway aircraft wheelchair scooter drone" speed="6.60" length="9.28" width="3.50" shape="956.15,2793.42 953.76,2792.56 951.67,2792.67 949.88,2793.76 948.39,2795.83"/>
    </edge>
    <edge id=":10255293266_1" function="internal">
        <lane id=":10255293266_1_0" index="0" disallow="tram rail_urban rail rail_electric rail_fast ship container cable_car subway aircraft wheelchair scooter drone" speed="27.78" length="14.99" width="3.50" shape="956.15,2793.42 942.90,2786.40"/>
        <lane id=":10255293266_1_1" index="1" disallow="tram rail_urban rail rail_electric rail_fast ship container cable_car subway aircraft wheelchair scooter drone" speed="27.78" length="14.99" width="3.50" shape="957.79,2790.33 944.54,2783.31"/>
    </edge>
    <edge id=":10255293266_3" function="internal">
        <lane id=":10255293266_3_0" index="0" disallow="tram rail_urban rail rail_electric rail_fast ship container cable_car subway aircraft wheelchair scooter drone" speed="27.78" length="14.97" width="3.50" shape="947.83,2777.12 961.06,2784.14"/>
        <lane id=":10255293266_3_1" index="1" disallow="tram rail_urban rail rail_electric rail_fast ship container cable_car subway aircraft wheelchair scooter drone" speed="27.78" length="14.97" width="3.50" shape="946.19,2780.22 959.42,2787.23"/>
    </edge>
    <edge id=":10255293266_5" function="internal">
        <lane id=":10255293266_5_0" index="0" disallow="tram rail_urban rail rail_electric rail_fast ship container cable_car subway aircraft wheelchair scooter drone" speed="8.95" length="4.11" width="3.50" shape="946.19,2780.22 949.37,2782.81"/>
    </edge>
    <edge id=":10255293266_8" function="internal">
        <lane id=":10255293266_8_0" index="0" disallow="tram rail_urban rail rail_electric rail_fast ship container cable_car subway aircraft wheelchair scooter drone" speed="8.95" length="13.71" width="3.50" shape="949.37,2782.81 950.80,2786.28 950.47,2790.62 948.39,2795.83"/>
    </edge>
    <edge id=":10255293266_6" function="internal">
        <lane id=":10255293266_6_0" index="0" disallow="tram rail_urban rail rail_electric rail_fast ship container cable_car subway aircraft wheelchair scooter drone" speed="6.64" length="9.30" width="3.50" shape="945.29,2794.20 946.15,2791.80 946.03,2789.70 944.95,2787.89 942.90,2786.40"/>
    </edge>
    <edge id=":10255293266_7" function="internal">
        <lane id=":10255293266_7_0" index="0" disallow="tram rail_urban rail rail_electric rail_fast ship container cable_car subway aircraft wheelchair scooter drone" speed="8.92" length="17.86" width="3.50" shape="945.29,2794.20 948.40,2789.52 951.79,2786.80 955.46,2786.03 959.42,2787.23"/>
    </edge>
    <edge id=":10255293282_0" function="internal">
        <lane id=":10255293282_0_0" index="0" disallow="tram rail_urban rail rail_electric rail_fast ship container cable_car subway aircraft wheelchair scooter drone" speed="6.54" length="9.28" width="3.50" shape="905.17,2766.35 902.76,2765.48 900.68,2765.61 898.93,2766.73 897.49,2768.85"/>
    </edge>
    <edge id=":10255293282_1" function="internal">
        <lane id=":10255293282_1_0" index="0" disallow="tram rail_urban rail rail_electric rail_fast ship container cable_car subway aircraft wheelchair scooter drone" speed="27.78" length="15.01" width="3.50" shape="905.17,2766.35 891.92,2759.30"/>
        <lane id=":10255293282_1_1" index="1" disallow="tram rail_urban rail rail_electric rail_fast ship container cable_car subway aircraft wheelchair scooter drone" speed="27.78" length="15.01" width="3.50" shape="906.81,2763.26 893.56,2756.21"/>
    </edge>
    <edge id=":10255293282_3" function="internal">
        <lane id=":10255293282_3_0" index="0" disallow="tram rail_urban rail rail_electric rail_fast ship container cable_car subway aircraft wheelchair scooter drone" speed="27.78" length="15.01" width="3.50" shape="896.84,2750.03 910.10,2757.08"/>
        <lane id=":10255293282_3_1" index="1" disallow="tram rail_urban rail rail_electric rail_fast ship container cable_car subway aircraft wheelchair scooter drone" speed="27.78" length="15.01" width="3.50" shape="895.20,2753.12 908.45,2760.17"/>
    </edge>
    <edge id=":10255293282_5" function="internal">
        <lane id=":10255293282_5_0" index="0" disallow="tram rail_urban rail rail_electric rail_fast ship container cable_car subway aircraft wheelchair scooter drone" speed="9.05" length="4.02" width="3.50" shape="895.20,2753.12 898.30,2755.68"/>
    </edge>
    <edge id=":10255293282_8" function="internal">
        <lane id=":10255293282_8_0" index="0" disallow="tram rail_urban rail rail_electric rail_fast ship container cable_car subway aircraft wheelchair scooter drone" speed="9.05" length="13.81" width="3.50" shape="898.30,2755.68 899.72,2759.15 899.45,2763.54 897.49,2768.85"/>
    </edge>
    <edge id=":10255293282_6" function="internal">
        <lane id=":10255293282_6_0" index="0" disallow="tram rail_urban rail rail_electric rail_fast ship container cable_car subway aircraft wheelchair scooter drone" speed="6.77" length="9.48" width="3.50" shape="894.35,2767.32 895.17,2764.82 895.04,2762.65 893.95,2760.81 891.92,2759.30"/>
    </edge>
    <edge id=":10255293282_7" function="internal">
        <lane id=":10255293282_7_0" index="0" disallow="tram rail_urban rail rail_electric rail_fast ship container cable_car subway aircraft wheelchair scooter drone" speed="8.87" length="18.06" width="3.50" shape="894.35,2767.32 897.35,2762.51 900.70,2759.71 904.40,2758.93 908.45,2760.17"/>
    </edge>
    <edge id=":10255293289_0" function="internal">
        <lane id=":10255293289_0_0" index="0" disallow="tram rail_urban rail rail_electric rail_fast ship container cable_car subway aircraft wheelchair scooter drone" speed="6.51" length="9.29" width="3.50" shape="940.17,2784.95 937.76,2784.08 935.68,2784.21 933.94,2785.35 932.54,2787.50"/>
    </edge>
    <edge id=":10255293289_1" function="internal">
        <lane id=":10255293289_1_0" index="0" disallow="tram rail_urban rail rail_electric rail_fast ship container cable_car subway aircraft wheelchair scooter drone" speed="27.78" length="15.01" width="3.50" shape="940.17,2784.95 926.92,2777.90"/>
        <lane id=":10255293289_1_1" index="1" disallow="tram rail_urban rail rail_electric rail_fast ship container cable_car subway aircraft wheelchair scooter drone" speed="27.78" length="15.01" width="3.50" shape="941.81,2781.86 928.56,2774.81"/>
    </edge>
    <edge id=":10255293289_3" function="internal">
        <lane id=":10255293289_3_0" index="0" disallow="tram rail_urban rail rail_electric rail_fast ship container cable_car subway aircraft wheelchair scooter drone" speed="27.78" length="15.01" width="3.50" shape="931.84,2768.63 945.10,2775.67"/>
        <lane id=":10255293289_3_1" index="1" disallow="tram rail_urban rail rail_electric rail_fast ship container cable_car subway aircraft wheelchair scooter drone" speed="27.78" length="15.01" width="3.50" shape="930.20,2771.72 943.46,2778.77"/>
    </edge>
    <edge id=":10255293289_5" function="internal">
        <lane id=":10255293289_5_0" index="0" disallow="tram rail_urban rail rail_electric rail_fast ship container cable_car subway aircraft wheelchair scooter drone" speed="9.10" length="3.98" width="3.50" shape="930.20,2771.72 933.26,2774.26"/>
    </edge>
    <edge id=":10255293289_8" function="internal">
        <lane id=":10255293289_8_0" index="0" disallow="tram rail_urban rail rail_electric rail_fast ship container cable_car subway aircraft wheelchair scooter drone" speed="9.10" length="13.85" width="3.50" shape="933.26,2774.26 934.68,2777.73 934.43,2782.15 932.54,2787.50"/>
    </edge>
    <edge id=":10255293289_6" function="internal">
        <lane id=":10255293289_6_0" index="0" disallow="tram rail_urban rail rail_electric rail_fast ship container cable_car subway aircraft wheelchair scooter drone" speed="6.83" length="9.56" width="3.50" shape="929.37,2786.02 930.17,2783.46 930.03,2781.26 928.95,2779.41 926.92,2777.90"/>
    </edge>
    <edge id=":10255293289_7" function="internal">
        <lane id=":10255293289_7_0" index="0" disallow="tram rail_urban rail rail_electric rail_fast ship container cable_car subway aircraft wheelchair scooter drone" speed="8.84" length="18.16" width="3.50" shape="929.37,2786.02 932.32,2781.14 935.65,2778.30 939.36,2777.51 943.46,2778.77"/>
    </edge>
    <edge id=":10255293290_0" function="internal">
        <lane id=":10255293290_0_0" index="0" disallow="tram rail_urban rail rail_electric rail_fast ship container cable_car subway aircraft wheelchair scooter drone" speed="6.67" length="9.34" width="3.50" shape="876.14,2826.24 873.68,2825.48 871.56,2825.67 869.79,2826.82 868.37,2828.92"/>
    </edge>
    <edge id=":10255293290_1" function="internal">
        <lane id=":10255293290_1_0" index="0" disallow="tram rail_urban rail rail_electric rail_fast ship container cable_car subway aircraft wheelchair scooter drone" speed="8.19" length="14.97" width="3.50" shape="876.14,2826.24 872.70,2823.98 870.83,2821.17 870.52,2817.81 871.77,2813.90"/>
    </edge>
    <edge id=":10255293290_2" function="internal">
        <lane id=":10255293290_2_0" index="0" disallow="tram rail_urban rail rail_electric rail_fast ship container cable_car subway aircraft wheelchair scooter drone" speed="6.59" length="9.28" width="3.50" shape="874.92,2815.42 874.14,2817.85 874.33,2819.93 875.49,2821.67 877.62,2823.07"/>
    </edge>
    <edge id=":10255293290_3" function="internal">
        <lane id=":10255293290_3_0" index="0" disallow="tram rail_urban rail rail_electric rail_fast ship container cable_car subway aircraft wheelchair scooter drone" speed="13.89" length="15.00" width="3.50" shape="874.92,2815.42 868.37,2828.92"/>
    </edge>
    <edge id=":10255293290_4" function="internal">
        <lane id=":10255293290_4_0" index="0" disallow="tram rail_urban rail rail_electric rail_fast ship container cable_car subway aircraft wheelchair scooter drone" speed="13.89" length="15.00" width="3.50" shape="865.22,2827.40 871.77,2813.90"/>
    </edge>
    <edge id=":10255293290_5" function="internal">
        <lane id=":10255293290_5_0" index="0" disallow="tram rail_urban rail rail_electric rail_fast ship container cable_car subway aircraft wheelchair scooter drone" speed="8.26" length="4.48" width="3.50" shape="865.22,2827.40 867.50,2824.03 867.85,2823.80"/>
    </edge>
    <edge id=":10255293290_6" function="internal">
        <lane id=":10255293290_6_0" index="0" disallow="tram rail_urban rail rail_electric rail_fast ship container cable_car subway aircraft wheelchair scooter drone" speed="8.26" length="10.46" width="3.50" shape="867.85,2823.80 870.33,2822.18 873.70,2821.86 877.62,2823.07"/>
    </edge>
    <edge id=":10255293291_0" function="internal">
        <lane id=":10255293291_0_0" index="0" disallow="tram rail_urban rail rail_electric rail_fast ship container cable_car subway aircraft wheelchair scooter drone" speed="13.89" length="15.00" width="3.50" shape="911.46,2832.59 905.11,2846.18"/>
    </edge>
    <edge id=":10255293291_1" function="internal">
        <lane id=":10255293291_1_0" index="0" disallow="tram rail_urban rail rail_electric rail_fast ship container cable_car subway aircraft wheelchair scooter drone" speed="8.21" length="4.50" width="3.50" shape="911.46,2832.59 909.22,2836.02 908.88,2836.25"/>
    </edge>
    <edge id=":10255293291_6" function="internal">
        <lane id=":10255293291_6_0" index="0" disallow="tram rail_urban rail rail_electric rail_fast ship container cable_car subway aircraft wheelchair scooter drone" speed="8.21" length="10.42" width="3.50" shape="908.88,2836.25 906.43,2837.90 903.07,2838.24 899.16,2837.05"/>
    </edge>
    <edge id=":10255293291_2" function="internal">
        <lane id=":10255293291_2_0" index="0" disallow="tram rail_urban rail rail_electric rail_fast ship container cable_car subway aircraft wheelchair scooter drone" speed="6.61" length="9.27" width="3.50" shape="900.65,2833.88 903.08,2834.62 905.16,2834.41 906.90,2833.24 908.29,2831.11"/>
    </edge>
    <edge id=":10255293291_3" function="internal">
        <lane id=":10255293291_3_0" index="0" disallow="tram rail_urban rail rail_electric rail_fast ship container cable_car subway aircraft wheelchair scooter drone" speed="8.22" length="14.92" width="3.50" shape="900.65,2833.88 904.07,2836.12 905.95,2838.92 906.30,2842.27 905.11,2846.18"/>
    </edge>
    <edge id=":10255293291_4" function="internal">
        <lane id=":10255293291_4_0" index="0" disallow="tram rail_urban rail rail_electric rail_fast ship container cable_car subway aircraft wheelchair scooter drone" speed="6.62" length="9.28" width="3.50" shape="901.94,2844.70 902.68,2842.27 902.46,2840.18 901.29,2838.44 899.16,2837.05"/>
    </edge>
    <edge id=":10255293291_5" function="internal">
        <lane id=":10255293291_5_0" index="0" disallow="tram rail_urban rail rail_electric rail_fast ship container cable_car subway aircraft wheelchair scooter drone" speed="13.89" length="15.00" width="3.50" shape="901.94,2844.70 908.29,2831.11"/>
    </edge>
    <edge id=":10255311432_0" function="internal">
        <lane id=":10255311432_0_0" index="0" disallow="tram rail_urban rail rail_electric rail_fast ship container cable_car subway aircraft wheelchair scooter drone" speed="6.79" length="9.50" width="3.50" shape="760.67,2690.55 758.26,2689.79 756.14,2689.99 754.29,2691.16 752.72,2693.29"/>
    </edge>
    <edge id=":10255311432_1" function="internal">
        <lane id=":10255311432_1_0" index="0" disallow="tram rail_urban rail rail_electric rail_fast ship container cable_car subway aircraft wheelchair scooter drone" speed="27.78" length="14.99" width="3.50" shape="760.67,2690.55 747.22,2683.93"/>
        <lane id=":10255311432_1_1" index="1" disallow="tram rail_urban rail rail_electric rail_fast ship container cable_car subway aircraft wheelchair scooter drone" speed="27.78" length="14.99" width="3.50" shape="762.21,2687.41 748.77,2680.79"/>
    </edge>
    <edge id=":10255311432_3" function="internal">
        <lane id=":10255311432_3_0" index="0" disallow="tram rail_urban rail rail_electric rail_fast ship container cable_car subway aircraft wheelchair scooter drone" speed="27.78" length="14.97" width="3.50" shape="751.87,2674.51 765.29,2681.12"/>
        <lane id=":10255311432_3_1" index="1" disallow="tram rail_urban rail rail_electric rail_fast ship container cable_car subway aircraft wheelchair scooter drone" speed="27.78" length="14.97" width="3.50" shape="750.32,2677.65 763.75,2684.26"/>
    </edge>
    <edge id=":10255311432_5" function="internal">
        <lane id=":10255311432_5_0" index="0" disallow="tram rail_urban rail rail_electric rail_fast ship container cable_car subway aircraft wheelchair scooter drone" speed="8.86" length="4.25" width="3.50" shape="750.32,2677.65 753.70,2680.23"/>
    </edge>
    <edge id=":10255311432_8" function="internal">
        <lane id=":10255311432_8_0" index="0" disallow="tram rail_urban rail rail_electric rail_fast ship container cable_car subway aircraft wheelchair scooter drone" speed="8.86" length="13.84" width="3.50" shape="753.70,2680.23 755.22,2683.69 754.90,2688.05 752.72,2693.29"/>
    </edge>
    <edge id=":10255311432_6" function="internal">
        <lane id=":10255311432_6_0" index="0" disallow="tram rail_urban rail rail_electric rail_fast ship container cable_car subway aircraft wheelchair scooter drone" speed="6.53" length="9.28" width="3.50" shape="749.65,2691.62 750.54,2689.22 750.43,2687.14 749.32,2685.37 747.22,2683.93"/>
    </edge>
    <edge id=":10255311432_7" function="internal">
        <lane id=":10255311432_7_0" index="0" disallow="tram rail_urban rail rail_electric rail_fast ship container cable_car subway aircraft wheelchair scooter drone" speed="9.07" length="17.81" width="3.50" shape="749.65,2691.62 752.83,2686.94 756.24,2684.15 759.88,2683.26 763.75,2684.26"/>
    </edge>
    <edge id=":10255311440_0" function="internal">
        <lane id=":10255311440_0_0" index="0" disallow="tram rail_urban rail rail_electric rail_fast ship container cable_car subway aircraft wheelchair scooter drone" speed="6.56" length="9.28" width="3.50" shape="705.34,2715.84 702.99,2714.85 700.90,2714.86 699.07,2715.87 697.51,2717.89"/>
    </edge>
    <edge id=":10255311440_1" function="internal">
        <lane id=":10255311440_1_0" index="0" disallow="tram rail_urban rail rail_electric rail_fast ship container cable_car subway aircraft wheelchair scooter drone" speed="8.41" length="14.89" width="3.50" shape="705.34,2715.84 702.13,2713.27 700.43,2710.29 700.23,2706.92 701.52,2703.16"/>
    </edge>
    <edge id=":10255311440_2" function="internal">
        <lane id=":10255311440_2_0" index="0" disallow="tram rail_urban rail rail_electric rail_fast ship container cable_car subway aircraft wheelchair scooter drone" speed="6.85" length="9.51" width="3.50" shape="704.63,2704.76 703.82,2707.15 703.97,2709.29 705.07,2711.19 707.14,2712.84"/>
    </edge>
    <edge id=":10255311440_3" function="internal">
        <lane id=":10255311440_3_0" index="0" disallow="tram rail_urban rail rail_electric rail_fast ship container cable_car subway aircraft wheelchair scooter drone" speed="13.89" length="14.93" width="3.50" shape="704.63,2704.76 697.51,2717.89"/>
    </edge>
    <edge id=":10255311440_4" function="internal">
        <lane id=":10255311440_4_0" index="0" disallow="tram rail_urban rail rail_electric rail_fast ship container cable_car subway aircraft wheelchair scooter drone" speed="13.89" length="14.79" width="3.50" shape="694.47,2716.16 701.52,2703.16"/>
    </edge>
    <edge id=":10255311440_5" function="internal">
        <lane id=":10255311440_5_0" index="0" disallow="tram rail_urban rail rail_electric rail_fast ship container cable_car subway aircraft wheelchair scooter drone" speed="8.17" length="4.36" width="3.50" shape="694.47,2716.16 697.00,2712.89 697.20,2712.78"/>
    </edge>
    <edge id=":10255311440_6" function="internal">
        <lane id=":10255311440_6_0" index="0" disallow="tram rail_urban rail rail_electric rail_fast ship container cable_car subway aircraft wheelchair scooter drone" speed="8.17" length="10.67" width="3.50" shape="697.20,2712.78 699.96,2711.25 703.34,2711.24 707.14,2712.84"/>
    </edge>
    <edge id=":10255311441_0" function="internal">
        <lane id=":10255311441_0_0" index="0" disallow="tram rail_urban rail rail_electric rail_fast ship container cable_car subway aircraft wheelchair scooter drone" speed="13.89" length="15.01" width="3.50" shape="736.29,2723.43 729.10,2736.60"/>
    </edge>
    <edge id=":10255311441_1" function="internal">
        <lane id=":10255311441_1_0" index="0" disallow="tram rail_urban rail rail_electric rail_fast ship container cable_car subway aircraft wheelchair scooter drone" speed="8.14" length="4.54" width="3.50" shape="736.29,2723.43 733.80,2726.76 733.47,2726.95"/>
    </edge>
    <edge id=":10255311441_6" function="internal">
        <lane id=":10255311441_6_0" index="0" disallow="tram rail_urban rail rail_electric rail_fast ship container cable_car subway aircraft wheelchair scooter drone" speed="8.14" length="10.57" width="3.50" shape="733.47,2726.95 730.86,2728.45 727.47,2728.48 723.63,2726.86"/>
    </edge>
    <edge id=":10255311441_2" function="internal">
        <lane id=":10255311441_2_0" index="0" disallow="tram rail_urban rail rail_electric rail_fast ship container cable_car subway aircraft wheelchair scooter drone" speed="6.53" length="9.28" width="3.50" shape="725.44,2723.86 727.79,2724.86 729.88,2724.84 731.68,2723.80 733.22,2721.75"/>
    </edge>
    <edge id=":10255311441_3" function="internal">
        <lane id=":10255311441_3_0" index="0" disallow="tram rail_urban rail rail_electric rail_fast ship container cable_car subway aircraft wheelchair scooter drone" speed="8.36" length="14.98" width="3.50" shape="725.44,2723.86 728.66,2726.46 730.35,2729.45 730.50,2732.83 729.10,2736.60"/>
    </edge>
    <edge id=":10255311441_4" function="internal">
        <lane id=":10255311441_4_0" index="0" disallow="tram rail_urban rail rail_electric rail_fast ship container cable_car subway aircraft wheelchair scooter drone" speed="6.79" length="9.51" width="3.50" shape="726.03,2734.93 726.90,2732.55 726.79,2730.42 725.70,2728.52 723.63,2726.86"/>
    </edge>
    <edge id=":10255311441_5" function="internal">
        <lane id=":10255311441_5_0" index="0" disallow="tram rail_urban rail rail_electric rail_fast ship container cable_car subway aircraft wheelchair scooter drone" speed="13.89" length="15.01" width="3.50" shape="726.03,2734.93 733.22,2721.75"/>
    </edge>
    <edge id=":10603883041_0" function="internal">
        <lane id=":10603883041_0_0" index="0" disallow="tram rail_urban rail rail_electric rail_fast ship container cable_car subway aircraft wheelchair scooter drone" speed="27.78" length="10.01" width="3.50" shape="1731.95,2304.14 1726.68,2295.64"/>
    </edge>
    <edge id=":10603883041_1" function="internal">
        <lane id=":10603883041_1_0" index="0" disallow="tram rail_urban rail rail_electric rail_fast ship container cable_car subway aircraft wheelchair scooter drone" speed="6.25" length="8.39" width="3.50" shape="1731.95,2304.14 1730.57,2301.50 1730.01,2299.37 1730.28,2297.75 1731.37,2296.64"/>
    </edge>
    <edge id=":10603883041_2" function="internal">
        <lane id=":10603883041_2_0" index="0" disallow="tram rail_urban rail rail_electric rail_fast ship container cable_car subway aircraft wheelchair scooter drone" speed="6.40" length="8.33" width="3.50" shape="1733.09,2299.68 1731.61,2300.04 1730.05,2299.49 1728.40,2298.02 1726.68,2295.64"/>
    </edge>
    <edge id=":10603883042_0" function="internal">
        <lane id=":10603883042_0_0" index="0" disallow="tram rail_urban rail rail_electric rail_fast ship container cable_car subway aircraft wheelchair scooter drone" speed="6.75" length="9.45" width="3.50" shape="1749.54,2296.93 1747.92,2294.98 1746.03,2294.01 1743.86,2294.01 1741.42,2294.98"/>
    </edge>
    <edge id=":10603883042_1" function="internal">
        <lane id=":10603883042_1_0" index="0" disallow="tram rail_urban rail rail_electric rail_fast ship container cable_car subway aircraft wheelchair scooter drone" speed="13.89" length="15.00" width="3.50" shape="1749.54,2296.93 1741.73,2284.12"/>
    </edge>
    <edge id=":10603883042_2" function="internal">
        <lane id=":10603883042_2_0" index="0" disallow="tram rail_urban rail rail_electric rail_fast ship container cable_car subway aircraft wheelchair scooter drone" speed="13.89" length="15.00" width="3.50" shape="1744.72,2282.29 1752.53,2295.10"/>
    </edge>
    <edge id=":10603883042_3" function="internal">
        <lane id=":10603883042_3_0" index="0" disallow="tram rail_urban rail rail_electric rail_fast ship container cable_car subway aircraft wheelchair scooter drone" speed="8.16" length="4.53" width="3.50" shape="1744.72,2282.29 1746.35,2286.11 1746.35,2286.49"/>
    </edge>
    <edge id=":10603883042_6" function="internal">
        <lane id=":10603883042_6_0" index="0" disallow="tram rail_urban rail rail_electric rail_fast ship container cable_car subway aircraft wheelchair scooter drone" speed="8.16" length="10.53" width="3.50" shape="1746.35,2286.49 1746.35,2289.49 1744.70,2292.45 1741.42,2294.98"/>
    </edge>
    <edge id=":10603883042_4" function="internal">
        <lane id=":10603883042_4_0" index="0" disallow="tram rail_urban rail rail_electric rail_fast ship container cable_car subway aircraft wheelchair scooter drone" speed="6.55" length="9.28" width="3.50" shape="1739.70,2291.93 1741.72,2290.37 1742.73,2288.55 1742.74,2286.47 1741.73,2284.12"/>
    </edge>
    <edge id=":10603883042_5" function="internal">
        <lane id=":10603883042_5_0" index="0" disallow="tram rail_urban rail rail_electric rail_fast ship container cable_car subway aircraft wheelchair scooter drone" speed="8.33" length="14.96" width="3.50" shape="1739.70,2291.93 1743.54,2290.41 1746.96,2290.44 1749.95,2292.00 1752.53,2295.10"/>
    </edge>
    <edge id=":10991550170_0" function="internal">
        <lane id=":10991550170_0_0" index="0" disallow="tram rail_urban rail rail_electric rail_fast ship container cable_car subway aircraft wheelchair scooter drone" speed="27.78" length="16.83" width="3.50" shape="2257.12,1548.45 2273.95,1548.34"/>
    </edge>
    <edge id=":10991550170_1" function="internal">
        <lane id=":10991550170_1_0" index="0" disallow="tram rail_urban rail rail_electric rail_fast ship container cable_car subway aircraft wheelchair scooter drone" speed="11.49" length="15.68" width="3.50" shape="2259.42,1552.88 2261.43,1551.00 2264.52,1549.62 2268.70,1548.73 2273.95,1548.34"/>
    </edge>
    <edge id=":10991550183_0" function="internal">
        <lane id=":10991550183_0_0" index="0" disallow="tram rail_urban rail rail_electric rail_fast ship container cable_car subway aircraft wheelchair scooter drone" speed="22.22" length="24.67" width="3.50" shape="2158.60,1865.82 2150.74,1842.44"/>
    </edge>
    <edge id=":10991550183_1" function="internal">
        <lane id=":10991550183_1_0" index="0" disallow="tram rail_urban rail rail_electric rail_fast ship container cable_car subway aircraft wheelchair scooter drone" speed="21.44" length="24.32" width="3.50" shape="2158.60,1865.82 2156.94,1861.81 2155.22,1856.67 2154.25,1850.19 2154.85,1842.20"/>
        <lane id=":10991550183_1_1" index="1" disallow="tram rail_urban rail rail_electric rail_fast ship container cable_car subway aircraft wheelchair scooter drone" speed="20.95" length="23.23" width="3.50" shape="2158.60,1865.82 2157.49,1861.85 2156.97,1856.82 2157.19,1850.54 2158.29,1842.85"/>
        <lane id=":10991550183_1_2" index="2" disallow="tram rail_urban rail rail_electric rail_fast ship container cable_car subway aircraft wheelchair scooter drone" speed="20.74" length="22.74" width="3.50" shape="2158.60,1865.82 2158.03,1861.92 2158.70,1857.06 2160.11,1851.00 2161.73,1843.50"/>
    </edge>
    <edge id=":11601558147_0" function="internal">