<?xml version="1.0" encoding="UTF-8"?>

<!-- generated on 2026-03-23T20:22:30.199959+05:30 by Eclipse SUMO polyconvert 1.26.0
<polyconvertConfiguration xmlns:xsi="http://www.w3.org/2001/XMLSchema-instance" xsi:noNamespaceSchemaLocation="http://sumo.dlr.de/xsd/polyconvertConfiguration.xsd">

    <input>
        <net-file value="C:\Users\welcome\Downloads\fixed_aqi_simulation_v11_synced_detection\city\city.net.xml"/>
        <osm-files value="C:\Users\welcome\Downloads\fixed_aqi_simulation_v11_synced_detection\city\map.osm"/>
        <type-file value="C:\Program Files (x86)\Eclipse\Sumo\data\typemap\osmPolyconvert.typ.xml"/>
    </input>

    <output>
        <output-file value="C:\Users\welcome\Downloads\fixed_aqi_simulation_v11_synced_detection\city\city.poly.xml"/>
    </output>

</polyconvertConfiguration>
-->

<additional xmlns:xsi="http://www.w3.org/2001/XMLSchema-instance" xsi:noNamespaceSchemaLocation="http://sumo.dlr.de/xsd/additional_file.xsd">
    <location netOffset="-716907.09,-3165590.89" convBoundary="-610.27,-1751.56,4124.85,7720.54" origBoundary="77.212215,28.583037,77.260806,28.668686" projParameter="+proj=utm +zone=43 +ellps=WGS84 +datum=WGS84 +units=m +no_defs"/>

    <poly id="1024422181" type="landuse" color="194,194,130" fill="1" layer="-3.00" shape="1389.659140,1542.689262 1389.169350,1541.150117 1388.748227,1539.601167 1388.395980,1538.031330 1388.102619,1536.451505 1387.868147,1534.861692 1387.712329,1533.251174 1387.614984,1531.652835 1387.576528,1530.044508 1387.616312,1528.437642 1387.714777,1526.831872 1387.881703,1525.227379 1388.116883,1523.635249 1388.410536,1522.055296 1388.772444,1520.487705 1389.192826,1518.932293 1389.681254,1517.400325 1390.237937,1515.880719 1390.842900,1514.395274 1391.515911,1512.933275 1392.247188,1511.494537 1393.046306,1510.090326 1393.893703,1508.720278 1394.789174,1507.395475 1395.752693,1506.094117 1396.754504,1504.837822 1397.814375,1503.615871 1398.922113,1502.450249 1400.078131,1501.318790 1401.282015,1500.243659 1402.524193,1499.213591 1408.081630,1495.525618 1414.188315,1492.812468 1420.666548,1491.159520 1427.329471,1490.618721 1433.991259,1491.186600 1440.456306,1492.859504 1446.549190,1495.600898 1452.095728,1499.307744 1456.940886,1503.899538 1460.940653,1509.229459 1463.990138,1515.151416 1465.984865,1521.497153 1466.889028,1528.088609 1466.667027,1534.736641 1465.322589,1541.241752 1462.907515,1547.449693 1459.474641,1553.150799 1455.124458,1558.202817 1449.987007,1562.452958 1444.201279,1565.792951 1437.935605,1568.115070 1431.367267,1569.356105 1424.682705,1569.486278 1418.077934,1568.487074 1411.718385,1566.405930 1405.818185,1563.302281 1400.513011,1559.245179 1395.976628,1554.359825 1392.323707,1548.792490 1389.659140,1542.689262"/>
    <poly id="1024422182" type="landuse" color="194,194,130" fill="1" layer="-3.00" shape="1439.061648,1508.865205 1440.332081,1507.370016 1442.623482,1508.831938 1444.964818,1510.239359 1443.513789,1511.975088 1441.373437,1510.283160 1439.061648,1508.865205"/>
    <poly id="1024422183" type="landuse" color="194,194,130" fill="1" layer="-3.00" shape="1444.759075,1512.874214 1447.243905,1515.503880 1449.526559,1519.005642 1451.272132,1522.453026 1451.784115,1525.422806 1451.999019,1529.107691 1454.491502,1529.231849 1454.419005,1526.303537 1453.728911,1523.441300 1452.710432,1520.351190 1451.166982,1517.606060 1449.234602,1514.731709 1447.417358,1512.502553 1446.130208,1511.225689 1444.759075,1512.874214"/>
    <poly id="1024422184" type="landuse" color="194,194,130" fill="1" layer="-3.00" shape="1452.628259,1531.037487 1454.821490,1530.945404 1454.612795,1533.214334 1454.214863,1536.710382 1453.503036,1539.202742 1452.495942,1541.789369 1451.279327,1544.593823 1449.580744,1547.012320 1448.021775,1549.289293 1446.555276,1548.186470 1448.347467,1545.470373 1449.820279,1543.092008 1451.196687,1540.113147 1451.982564,1537.322823 1452.606473,1533.775560 1452.628259,1531.037487"/>
    <poly id="1024422185" type="landuse" color="194,194,130" fill="1" layer="-3.00" shape="1442.166133,1554.801026 1440.706258,1553.343545 1443.380571,1551.065226 1444.965000,1549.520467 1446.750309,1550.839896 1444.330485,1553.111880 1442.166133,1554.801026"/>
    <poly id="1024423419" type="landuse" color="194,194,130" fill="1" layer="-3.00" shape="1419.658341,1535.721358 1419.986158,1536.503566 1420.637961,1537.225303 1421.669326,1538.053910 1423.087909,1538.579313 1424.538524,1538.961184 1426.238608,1539.081626 1426.226243,1540.267700 1425.198711,1540.281773 1424.046106,1540.182641 1422.830835,1539.771904 1421.567699,1539.304839 1420.223991,1538.437138 1419.599252,1537.837864 1418.917488,1537.148828 1418.406746,1536.207987 1418.309720,1535.640740 1419.658341,1535.721358"/>
    <poly id="1024423420" type="landuse" color="194,194,130" fill="1" layer="-3.00" shape="1427.410258,1540.256549 1428.850005,1540.172565 1430.316555,1539.701038 1431.642820,1538.883196 1432.717493,1537.916525 1431.834279,1537.013075 1430.550706,1538.164323 1429.562346,1538.700214 1428.303040,1539.075829 1427.411601,1539.136791 1427.410258,1540.256549"/>
    <poly id="1024423421" type="landuse" color="194,194,130" fill="1" layer="-3.00" shape="1433.470871,1536.866246 1434.200135,1536.059429 1434.783732,1535.194457 1435.247639,1533.928120 1435.488259,1532.568917 1435.524170,1531.693718 1434.115833,1531.667418 1434.060621,1533.052257 1433.696171,1534.231756 1433.278215,1535.133082 1432.458860,1536.049086 1433.470871,1536.866246"/>
    <poly id="1024423422" type="landuse" color="194,194,130" fill="1" layer="-3.00" shape="1434.120074,1530.392497 1435.577312,1530.419710 1435.687272,1529.246546 1435.558577,1528.279577 1435.243231,1527.353470 1434.886281,1526.559630 1434.312099,1525.872603 1433.519389,1524.837799 1432.385621,1525.825541 1433.238874,1526.761692 1433.914428,1527.783221 1434.157588,1528.907545 1434.120074,1530.392497"/>
    <poly id="1024423423" type="landuse" color="194,194,130" fill="1" layer="-3.00" shape="1431.357360,1524.830686 1432.355449,1523.773889 1431.535107,1523.170961 1430.535205,1522.753159 1428.802206,1522.299492 1426.624342,1522.092519 1426.598679,1523.466823 1428.522880,1523.635798 1430.137689,1524.131606 1431.357360,1524.830686"/>
    <poly id="1024423424" type="landuse" color="194,194,130" fill="1" layer="-3.00" shape="1419.937802,1527.566574 1420.563210,1526.558252 1421.488437,1525.211833 1422.885647,1524.262271 1424.177399,1523.720957 1425.345373,1523.521028 1425.311735,1522.178878 1423.269810,1522.550966 1421.592495,1523.306819 1420.121443,1524.543263 1418.926771,1526.172912 1418.266022,1527.502096 1419.937802,1527.566574"/>
    <poly id="1024427218" type="amenity" color="237,199,199" fill="1" layer="-1.00" shape="1235.374222,1540.009254 1234.435500,1537.885221 1234.362803,1535.489084 1235.457723,1533.436253 1237.405642,1531.809555 1240.805483,1531.019293 1244.018445,1531.855327 1246.054667,1534.410055 1246.368142,1537.010250 1245.540921,1539.921769 1243.253654,1541.908004 1239.741004,1542.452247 1237.055344,1541.670401 1235.374222,1540.009254"/>
    <poly id="1024427218#1" type="historic" color="128,255,128" fill="1" layer="-1.00" shape="1235.374222,1540.009254 1234.435500,1537.885221 1234.362803,1535.489084 1235.457723,1533.436253 1237.405642,1531.809555 1240.805483,1531.019293 1244.018445,1531.855327 1246.054667,1534.410055 1246.368142,1537.010250 1245.540921,1539.921769 1243.253654,1541.908004 1239.741004,1542.452247 1237.055344,1541.670401 1235.374222,1540.009254"/>
    <poly id="1024434128" type="historic" color="128,255,128" fill="1" layer="-1.00" shape="1424.853442,1533.623149 1424.895657,1529.266762 1430.433069,1529.270384 1430.282029,1533.691261 1424.853442,1533.623149"/>
    <poly id="1024439082" type="water" color="181,209,209" fill="1" layer="-4.00" shape="1331.889746,1542.043207 1331.869601,1540.501744 1340.649186,1540.299755 1340.618982,1541.917886 1331.889746,1542.043207"/>
    <poly id="1024439083" type="water" color="181,209,209" fill="1" layer="-4.00" shape="1331.146870,1526.806954 1331.097591,1525.253861 1340.365366,1525.105331 1340.372627,1526.812857 1331.146870,1526.806954"/>
    <poly id="1024439084" type="water" color="181,209,209" fill="1" layer="-4.00" shape="1480.936516,1542.320559 1481.879458,1536.883385 1484.158226,1536.925949 1483.209694,1542.662367 1480.936516,1542.320559"/>
    <poly id="1024439085" type="water" color="181,209,209" fill="1" layer="-4.00" shape="1481.601364,1518.773178 1483.901301,1518.206354 1481.710252,1512.943469 1479.495644,1513.656018 1481.601364,1518.773178"/>
    <poly id="1024439952" type="building" color="255,230,230" fill="1" layer="-1.00" shape="1417.196998,1717.301991 1416.564775,1689.861040 1421.834274,1689.538139 1421.839417,1666.211267 1445.158995,1665.382851 1446.726677,1688.306710 1452.553638,1687.994234 1453.028521,1715.997690 1438.668267,1716.427968 1437.602308,1689.688477 1430.066334,1689.836001 1430.835445,1717.279511 1417.196998,1717.301991"/>
    <poly id="1024439953" type="building" color="255,230,230" fill="1" layer="-1.00" shape="1411.712168,1393.305137 1435.308255,1392.892038 1435.323713,1369.011018 1440.293119,1369.048380 1439.942668,1342.233570 1425.741700,1341.968397 1426.220209,1369.262334 1418.696501,1369.265980 1418.478579,1342.686476 1404.403984,1342.989123 1405.184020,1369.856294 1411.438777,1369.695902 1411.712168,1393.305137"/>
    <poly id="1026898819" type="landuse" color="194,194,130" fill="1" layer="-3.00" shape="1232.082703,1410.186249 1232.123643,1407.991798 1216.506358,1408.132840 1216.943720,1425.070759 1219.791826,1425.013022 1219.478760,1410.328070 1232.082703,1410.186249"/>
    <poly id="1026898820" type="landuse" color="194,194,130" fill="1" layer="-3.00" shape="1232.897064,1442.575317 1232.983472,1444.761057 1217.366235,1444.902094 1217.256154,1429.300713 1220.055358,1429.242063 1220.294395,1442.650636 1232.897064,1442.575317"/>
    <poly id="1026898821" type="landuse" color="194,194,130" fill="1" layer="-3.00" shape="1239.523564,1441.889599 1239.482622,1444.084050 1255.099863,1443.943041 1254.549722,1428.333445 1251.859134,1428.338678 1252.127476,1441.747801 1239.523564,1441.889599"/>
    <poly id="1026898822" type="landuse" color="194,194,130" fill="1" layer="-3.00" shape="1238.192731,1409.391111 1238.116310,1407.194470 1253.948764,1407.057472 1254.403358,1424.117675 1251.761670,1424.123821 1251.499819,1409.317864 1238.192731,1409.391111"/>
    <poly id="1026902501" type="historic" color="128,255,128" fill="1" layer="-1.00" shape="1429.454542,1483.174706 1429.618162,1481.747543 1431.409588,1481.692300 1433.812403,1481.903474 1436.514886,1482.308723 1439.041532,1482.699602 1440.452826,1483.091827 1441.611284,1483.401722 1444.784922,1484.248163 1447.260235,1485.292216 1449.771357,1486.514330 1452.291430,1487.780959 1454.359339,1489.161101 1455.227341,1489.831442 1456.262434,1490.460556 1455.109100,1491.447930 1454.200322,1490.865523 1452.645380,1489.783222 1450.699852,1488.660366 1449.181340,1487.722877 1447.277468,1486.988843 1445.230826,1486.041491 1442.535589,1485.248331 1440.365169,1484.642365 1437.578598,1484.024892 1434.564600,1483.536217 1431.732492,1483.261591 1429.454542,1483.174706"/>
    <poly id="1026902502" type="historic" color="128,255,128" fill="1" layer="-1.00" shape="1422.647135,1483.069763 1422.607701,1482.037939 1421.137365,1482.187875 1417.328590,1482.870668 1414.046081,1483.663072 1410.513895,1484.727988 1406.676509,1486.419163 1403.526219,1487.990126 1400.507678,1489.840722 1398.874501,1490.852403 1397.055970,1492.359536 1398.045529,1493.331491 1398.960616,1492.528141 1400.150582,1491.674490 1402.449998,1490.087640 1404.210524,1489.067250 1405.863676,1488.033769 1408.584108,1486.953695 1410.598506,1485.960220 1412.881368,1485.260020 1416.166360,1484.334619 1419.448662,1483.553299 1421.272946,1483.310190 1422.647135,1483.069763"/>
    <poly id="1026902503" type="historic" color="128,255,128" fill="1" layer="-1.00" shape="1382.768758,1515.064964 1381.503755,1514.697651 1382.440304,1512.220571 1383.529142,1509.446986 1385.145488,1506.716511 1387.667498,1502.639249 1389.681107,1500.115757 1390.701443,1498.915241 1391.743835,1499.677530 1389.372347,1502.504775 1387.345703,1505.726502 1385.670262,1508.478048 1383.820283,1511.669813 1382.768758,1515.064964"/>
    <poly id="1026902504" type="historic" color="128,255,128" fill="1" layer="-1.00" shape="1473.859324,1519.471182 1475.859389,1518.721364 1474.403863,1514.935698 1471.670039,1508.875502 1468.391886,1503.148837 1464.046503,1497.989851 1462.718370,1496.812001 1461.379213,1497.795904 1464.908137,1501.620293 1467.425047,1504.627520 1469.249843,1507.499864 1471.866206,1512.515690 1473.422948,1517.168030 1473.859324,1519.471182"/>
    <poly id="1026902505" type="historic" color="128,255,128" fill="1" layer="-1.00" shape="1382.679902,1548.645697 1384.070692,1548.039706 1385.524585,1551.914025 1387.342825,1555.662103 1389.730530,1558.777770 1391.746536,1561.365411 1394.616721,1563.791609 1393.246788,1564.852553 1391.954826,1563.309517 1389.673516,1560.783445 1387.816942,1558.564651 1386.263551,1556.351518 1385.059759,1554.277955 1383.521210,1550.745752 1382.679902,1548.645697"/>
    <poly id="1026902824" type="historic" color="128,255,128" fill="1" layer="-1.00" shape="1400.525371,1570.110629 1401.148706,1569.213137 1404.138263,1571.009610 1407.511726,1572.680209 1411.070182,1574.398612 1416.025481,1575.710707 1420.692342,1576.751331 1424.706990,1577.092386 1427.462696,1577.265803 1427.443862,1578.274364 1424.949941,1578.227793 1421.839875,1578.169716 1417.570065,1577.347158 1413.354743,1576.226271 1408.485757,1574.483397 1405.105825,1572.635286 1402.034096,1571.047930 1400.525371,1570.110629"/>
    <poly id="1026902825" type="historic" color="128,255,128" fill="1" layer="-1.00" shape="1434.003141,1578.042072 1433.935404,1576.954285 1437.446401,1576.498765 1441.400763,1575.353047 1446.025760,1573.920507 1449.553060,1572.068337 1453.972575,1569.589788 1456.903241,1567.205391 1457.975843,1566.349553 1458.920424,1567.110021 1456.261065,1569.111442 1452.448743,1571.556982 1448.169255,1573.871842 1443.760921,1575.751906 1439.758486,1576.852378 1436.589843,1577.835378 1434.003141,1578.042072"/>
    <poly id="1026902826" type="historic" color="128,255,128" fill="1" layer="-1.00" shape="1464.504763,1559.885837 1466.770128,1556.979015 1469.256660,1553.754803 1470.721250,1550.245416 1472.786517,1546.004422 1474.013128,1541.093634 1474.750527,1536.184795 1476.423963,1536.160616 1475.707471,1539.950062 1474.875325,1544.169740 1473.051298,1549.113718 1471.478091,1552.676510 1469.035335,1556.699801 1467.161536,1559.070675 1466.384456,1560.342249 1464.504763,1559.885837"/>
    <poly id="1034066933" type="landuse" color="194,194,130" fill="1" layer="-3.00" shape="924.101807,1558.951879 1019.824809,1554.671128 1027.377107,1557.849717 1032.863753,1565.823709 1040.097227,1570.360056 1051.462634,1573.144092 1065.731407,1575.527702 1079.875999,1576.700538 1091.930897,1575.561607 1103.698256,1573.053634 1117.936060,1569.228046 1127.932289,1564.114900 1134.327408,1555.896783 1139.436222,1551.601630 1150.265752,1550.595121 1162.144570,1550.506235 1169.272383,1552.313308 1175.101608,1558.176157 1178.632221,1565.060481 1182.896050,1573.022830 1187.193984,1579.156471 1183.321728,1582.720757 1188.785518,1591.913969 1187.762885,1597.959451 1181.477855,1608.141983 1150.531600,1666.957515 1083.707335,1795.705700 1075.571150,1799.190510 1056.341977,1801.559373 1041.539377,1794.764287 959.306432,1745.657532 949.130076,1736.299010 941.084210,1726.536718 935.668190,1718.974299 933.189494,1708.661621 931.401404,1693.838347 929.632371,1671.165886 928.039774,1654.250828 927.237061,1635.898100 924.984009,1617.673569 923.935995,1596.733020 921.000833,1569.958853 921.447880,1563.292855 922.411188,1560.949288 924.101807,1558.951879"/>
    <poly id="1034066933#1" type="tourism" color="207,245,201" fill="1" layer="-2.00" shape="924.101807,1558.951879 1019.824809,1554.671128 1027.377107,1557.849717 1032.863753,1565.823709 1040.097227,1570.360056 1051.462634,1573.144092 1065.731407,1575.527702 1079.875999,1576.700538 1091.930897,1575.561607 1103.698256,1573.053634 1117.936060,1569.228046 1127.932289,1564.114900 1134.327408,1555.896783 1139.436222,1551.601630 1150.265752,1550.595121 1162.144570,1550.506235 1169.272383,1552.313308 1175.101608,1558.176157 1178.632221,1565.060481 1182.896050,1573.022830 1187.193984,1579.156471 1183.321728,1582.720757 1188.785518,1591.913969 1187.762885,1597.959451 1181.477855,1608.141983 1150.531600,1666.957515 1083.707335,1795.705700 1075.571150,1799.190510 1056.341977,1801.559373 1041.539377,1794.764287 959.306432,1745.657532 949.130076,1736.299010 941.084210,1726.536718 935.668190,1718.974299 933.189494,1708.661621 931.401404,1693.838347 929.632371,1671.165886 928.039774,1654.250828 927.237061,1635.898100 924.984009,1617.673569 923.935995,1596.733020 921.000833,1569.958853 921.447880,1563.292855 922.411188,1560.949288 924.101807,1558.951879"/>
    <poly id="1034067275" type="landuse" color="194,194,130" fill="1" layer="-3.00" shape="1319.796966,1526.861195 1319.950249,1518.648625 1340.949780,1518.430807 1341.844920,1510.309692 1344.770680,1499.277352 1350.815730,1486.762153 1360.987591,1472.250733 1367.602604,1465.367266 1375.277871,1458.814031 1383.827211,1453.130815 1392.186500,1448.719055 1407.688953,1443.198933 1420.432540,1441.341446 1419.587815,1412.178061 1419.553848,1393.562425 1411.324737,1393.619425 1410.732899,1371.345766 1395.963528,1371.657622 1395.420984,1351.458148 1362.744914,1352.954660 1352.207693,1353.489706 1321.115190,1410.628032 1285.496025,1473.380638 1285.539435,1479.967095 1291.454244,1486.485731 1298.250054,1498.220591 1302.086521,1507.061967 1305.317202,1517.433125 1306.713744,1521.760926 1308.936456,1524.806973 1310.950094,1526.474337 1312.908245,1526.921101 1319.796966,1526.861195"/>
    <poly id="1034067275#1" type="tourism" color="207,245,201" fill="1" layer="-2.00" shape="1319.796966,1526.861195 1319.950249,1518.648625 1340.949780,1518.430807 1341.844920,1510.309692 1344.770680,1499.277352 1350.815730,1486.762153 1360.987591,1472.250733 1367.602604,1465.367266 1375.277871,1458.814031 1383.827211,1453.130815 1392.186500,1448.719055 1407.688953,1443.198933 1420.432540,1441.341446 1419.587815,1412.178061 1419.553848,1393.562425 1411.324737,1393.619425 1410.732899,1371.345766 1395.963528,1371.657622 1395.420984,1351.458148 1362.744914,1352.954660 1352.207693,1353.489706 1321.115190,1410.628032 1285.496025,1473.380638 1285.539435,1479.967095 1291.454244,1486.485731 1298.250054,1498.220591 1302.086521,1507.061967 1305.317202,1517.433125 1306.713744,1521.760926 1308.936456,1524.806973 1310.950094,1526.474337 1312.908245,1526.921101 1319.796966,1526.861195"/>
    <poly id="1034067339" type="tourism" color="207,245,201" fill="1" layer="-2.00" shape="1367.900077,1321.552861 1392.662627,1275.959929 1400.383311,1270.649287 1412.585285,1269.513404 1500.181451,1317.060319 1367.900077,1321.552861"/>
    <poly id="1034067799" type="landuse" color="194,194,130" fill="1" layer="-3.00" shape="1548.356817,1517.603287 1540.677337,1517.570676 1539.568151,1516.718430 1539.518611,1512.038804 1516.388256,1512.671027 1515.541715,1505.614988 1512.790941,1498.368160 1508.170920,1489.057500 1503.234713,1480.960502 1497.136985,1473.240941 1487.895675,1463.588969 1479.986882,1457.498636 1472.631980,1453.181481 1463.829603,1448.837297 1456.287159,1446.179694 1446.443623,1443.102168 1437.254685,1441.644483 1428.918439,1441.677294 1428.443347,1423.108853 1427.552993,1393.246136 1435.447922,1393.271603 1435.609309,1369.958743 1450.438870,1370.091539 1450.065428,1350.272169 1543.019477,1347.695571 1550.252793,1371.091165 1552.241575,1417.028368 1554.342070,1478.977246 1551.544401,1507.230006 1550.928407,1513.493721 1549.855728,1515.923899 1548.356817,1517.603287"/>
    <poly id="1034067799#1" type="tourism" color="207,245,201" fill="1" layer="-2.00" shape="1548.356817,1517.603287 1540.677337,1517.570676 1539.568151,1516.718430 1539.518611,1512.038804 1516.388256,1512.671027 1515.541715,1505.614988 1512.790941,1498.368160 1508.170920,1489.057500 1503.234713,1480.960502 1497.136985,1473.240941 1487.895675,1463.588969 1479.986882,1457.498636 1472.631980,1453.181481 1463.829603,1448.837297 1456.287159,1446.179694 1446.443623,1443.102168 1437.254685,1441.644483 1428.918439,1441.677294 1428.443347,1423.108853 1427.552993,1393.246136 1435.447922,1393.271603 1435.609309,1369.958743 1450.438870,1370.091539 1450.065428,1350.272169 1543.019477,1347.695571 1550.252793,1371.091165 1552.241575,1417.028368 1554.342070,1478.977246 1551.544401,1507.230006 1550.928407,1513.493721 1549.855728,1515.923899 1548.356817,1517.603287"/>
    <poly id="1034068002" type="landuse" color="194,194,130" fill="1" layer="-3.00" shape="1320.419840,1540.664989 1320.380549,1548.535992 1332.829735,1548.291620 1342.306805,1547.936347 1343.653150,1553.904086 1345.580299,1560.204189 1347.609027,1566.827710 1352.180440,1576.126306 1357.164605,1582.705219 1363.483366,1590.639484 1369.247330,1596.323830 1377.475712,1602.586364 1384.767933,1607.112947 1393.791372,1611.139686 1401.857754,1614.549865 1410.907051,1617.191231 1418.435465,1617.974855 1427.315750,1618.140685 1427.968249,1642.400055 1428.963764,1665.579310 1421.157661,1665.522231 1421.491301,1689.043908 1407.237924,1688.988396 1407.560247,1709.449859 1367.189519,1710.214988 1326.469624,1640.061575 1295.510237,1593.129188 1293.473537,1587.980093 1294.160155,1583.691171 1297.167431,1578.248167 1302.839660,1565.260340 1305.646830,1554.813389 1307.398043,1546.952163 1308.028702,1544.613500 1310.346354,1542.572409 1313.151772,1540.606944 1320.419840,1540.664989"/>
    <poly id="1034068002#1" type="tourism" color="207,245,201" fill="1" layer="-2.00" shape="1320.419840,1540.664989 1320.380549,1548.535992 1332.829735,1548.291620 1342.306805,1547.936347 1343.653150,1553.904086 1345.580299,1560.204189 1347.609027,1566.827710 1352.180440,1576.126306 1357.164605,1582.705219 1363.483366,1590.639484 1369.247330,1596.323830 1377.475712,1602.586364 1384.767933,1607.112947 1393.791372,1611.139686 1401.857754,1614.549865 1410.907051,1617.191231 1418.435465,1617.974855 1427.315750,1618.140685 1427.968249,1642.400055 1428.963764,1665.579310 1421.157661,1665.522231 1421.491301,1689.043908 1407.237924,1688.988396 1407.560247,1709.449859 1367.189519,1710.214988 1326.469624,1640.061575 1295.510237,1593.129188 1293.473537,1587.980093 1294.160155,1583.691171 1297.167431,1578.248167 1302.839660,1565.260340 1305.646830,1554.813389 1307.398043,1546.952163 1308.028702,1544.613500 1310.346354,1542.572409 1313.151772,1540.606944 1320.419840,1540.664989"/>
    <poly id="1034069165" type="landuse" color="194,194,130" fill="1" layer="-3.00" shape="1539.962259,1536.992772 1540.061238,1531.695050 1548.513960,1531.708848 1550.560729,1534.219485 1552.751855,1538.429125 1554.695625,1543.310450 1555.900340,1548.998401 1559.464203,1683.416915 1555.689798,1693.258141 1549.503284,1700.770379 1542.706088,1706.408598 1462.965611,1707.768284 1461.968408,1687.826381 1447.343387,1687.763880 1446.108433,1664.835148 1437.115014,1664.966536 1436.432411,1618.222240 1440.811545,1617.904891 1447.898408,1616.662461 1458.262007,1613.363623 1467.002486,1609.491217 1474.290296,1605.347770 1481.158811,1601.129973 1489.138234,1594.005973 1495.982763,1586.882951 1501.960136,1579.045254 1507.526447,1570.168793 1511.563551,1561.452246 1514.330587,1553.687625 1516.273318,1542.914125 1517.615179,1539.690712 1520.425191,1537.481466 1524.486792,1536.881040 1539.962259,1536.992772"/>
    <poly id="1034069165#1" type="tourism" color="207,245,201" fill="1" layer="-2.00" shape="1539.962259,1536.992772 1540.061238,1531.695050 1548.513960,1531.708848 1550.560729,1534.219485 1552.751855,1538.429125 1554.695625,1543.310450 1555.900340,1548.998401 1559.464203,1683.416915 1555.689798,1693.258141 1549.503284,1700.770379 1542.706088,1706.408598 1462.965611,1707.768284 1461.968408,1687.826381 1447.343387,1687.763880 1446.108433,1664.835148 1437.115014,1664.966536 1436.432411,1618.222240 1440.811545,1617.904891 1447.898408,1616.662461 1458.262007,1613.363623 1467.002486,1609.491217 1474.290296,1605.347770 1481.158811,1601.129973 1489.138234,1594.005973 1495.982763,1586.882951 1501.960136,1579.045254 1507.526447,1570.168793 1511.563551,1561.452246 1514.330587,1553.687625 1516.273318,1542.914125 1517.615179,1539.690712 1520.425191,1537.481466 1524.486792,1536.881040 1539.962259,1536.992772"/>
    <poly id="1034069270" type="landuse" color="194,194,130" fill="1" layer="-3.00" shape="1412.110274,1780.136601 1388.613312,1743.321519 1500.977555,1740.575109 1461.080407,1768.367690 1433.532937,1787.621241 1427.111108,1789.929354 1417.604779,1787.146386 1412.110274,1780.136601"/>
    <poly id="1034069270#1" type="tourism" color="207,245,201" fill="1" layer="-2.00" shape="1412.110274,1780.136601 1388.613312,1743.321519 1500.977555,1740.575109 1461.080407,1768.367690 1433.532937,1787.621241 1427.111108,1789.929354 1417.604779,1787.146386 1412.110274,1780.136601"/>
    <poly id="1034069905" type="landuse" color="194,194,130" fill="1" layer="-3.00" shape="1214.297557,1613.588131 1216.767422,1609.155084 1220.520790,1606.719458 1226.042878,1605.968788 1248.598446,1605.192240 1253.852901,1604.103981 1259.119152,1606.053767 1274.722596,1632.853833 1391.079984,1810.842824 1392.392315,1816.532766 1388.901431,1821.678454 1267.356095,1893.381685 1256.049481,1895.853722 1244.469509,1895.149801 1235.296431,1892.861021 1118.676480,1836.426000 1114.130948,1831.507322 1111.457922,1824.805309 1110.827541,1812.442701 1115.128219,1799.540097 1132.533461,1771.171694 1159.347315,1717.789266 1214.297557,1613.588131"/>
    <poly id="1034069905#1" type="tourism" color="207,245,201" fill="1" layer="-2.00" shape="1214.297557,1613.588131 1216.767422,1609.155084 1220.520790,1606.719458 1226.042878,1605.968788 1248.598446,1605.192240 1253.852901,1604.103981 1259.119152,1606.053767 1274.722596,1632.853833 1391.079984,1810.842824 1392.392315,1816.532766 1388.901431,1821.678454 1267.356095,1893.381685 1256.049481,1895.853722 1244.469509,1895.149801 1235.296431,1892.861021 1118.676480,1836.426000 1114.130948,1831.507322 1111.457922,1824.805309 1110.827541,1812.442701 1115.128219,1799.540097 1132.533461,1771.171694 1159.347315,1717.789266 1214.297557,1613.588131"/>
    <poly id="1034507223" type="landuse" color="194,194,130" fill="1" layer="-3.00" shape="1349.022480,1554.525402 1357.351741,1552.241759 1363.158842,1566.097992 1367.722725,1573.179063 1372.824604,1579.216919 1378.160109,1584.793488 1382.883233,1588.584713 1387.581979,1592.109398 1394.298314,1595.516539 1399.902975,1598.204449 1403.317827,1599.753863 1406.603207,1600.901731 1412.437665,1602.285676 1416.506017,1602.893819 1424.172810,1603.602421 1427.862583,1603.527194 1427.677603,1611.861135 1424.118905,1611.728157 1419.930972,1611.760822 1415.432922,1611.111393 1409.375443,1610.144586 1403.443963,1608.193395 1398.850747,1606.876978 1394.907306,1604.818781 1387.693435,1601.335829 1383.023880,1598.343862 1377.405602,1594.813098 1372.131168,1590.157887 1367.388992,1585.290876 1363.040498,1580.298173 1358.703173,1574.706985 1355.552600,1569.481649 1353.816995,1566.023380 1351.673409,1561.360104 1349.022480,1554.525402"/>
    <poly id="1034507508" type="landuse" color="194,194,130" fill="1" layer="-3.00" shape="1434.598103,1611.668851 1434.508627,1603.363045 1438.589603,1603.295127 1444.375105,1602.061651 1450.375304,1600.333275 1455.048572,1598.934902 1459.591338,1597.190397 1465.946577,1593.739093 1471.163399,1590.477180 1475.768012,1586.993183 1481.068412,1582.923488 1484.275257,1578.847950 1488.715487,1573.165667 1491.746453,1568.554671 1494.552586,1562.886214 1497.095950,1557.667415 1498.988141,1551.693626 1500.240021,1545.430701 1500.967287,1541.064935 1500.963983,1539.146828 1509.086500,1539.553560 1507.581416,1546.277407 1505.883265,1553.385691 1504.618960,1560.313601 1502.348607,1565.581847 1498.315089,1572.535636 1495.066476,1577.275609 1490.629556,1582.780559 1485.984103,1587.926833 1481.638838,1592.191759 1474.907082,1596.944284 1467.830495,1601.302328 1461.764263,1604.470768 1455.465952,1606.969658 1446.851685,1609.846604 1440.749292,1611.284812 1434.598103,1611.668851"/>
    <poly id="1034507776" type="landuse" color="194,194,130" fill="1" layer="-3.00" shape="1347.602486,1512.146730 1355.517529,1514.234698 1356.129918,1510.254827 1357.892057,1504.954896 1360.569282,1498.851614 1363.218315,1493.734545 1366.340522,1488.426745 1371.033708,1482.294578 1376.611722,1476.456105 1383.145301,1470.790691 1389.047532,1466.976102 1396.769033,1462.663308 1402.783157,1460.192336 1410.812470,1458.257908 1417.985528,1456.595757 1421.715710,1456.454756 1421.479877,1449.698395 1414.722908,1450.558966 1405.699943,1452.264187 1398.410611,1454.389827 1390.006767,1458.567924 1382.286301,1462.825307 1374.825616,1467.841457 1368.530544,1473.832849 1363.437611,1479.891033 1358.488751,1486.617126 1355.171264,1492.952370 1351.423454,1499.279581 1348.988726,1506.019348 1347.602486,1512.146730"/>
    <poly id="1034508110" type="landuse" color="194,194,130" fill="1" layer="-3.00" shape="1428.763445,1456.264837 1428.848706,1449.603167 1442.034785,1450.769620 1449.967451,1451.915587 1462.017576,1455.233893 1471.498195,1460.455526 1479.792971,1466.309150 1487.528714,1473.283208 1494.857764,1481.602286 1499.139434,1488.600531 1501.863520,1495.181639 1504.640793,1503.105264 1506.660701,1509.673219 1507.035177,1513.194782 1500.233110,1514.375981 1499.394112,1507.963129 1495.792720,1499.114981 1492.762185,1493.226629 1487.953990,1485.608769 1480.981836,1477.562449 1475.328697,1473.277076 1469.985208,1469.174881 1463.103950,1465.165926 1454.956697,1461.366158 1445.170613,1458.356226 1436.578693,1456.887516 1428.763445,1456.264837"/>