<?xml version='1.0' encoding='utf-8'?>
<routes>
    <vType id="car_blue" vClass="passenger" guiShape="passenger" length="4.5" width="1.8" maxSpeed="13.89" accel="2.6" decel="4.5" emergencyDecel="6.0" sigma="0.5" color="0.27,0.55,1.0" carFollowModel="IDM" minGap="2.5" lcStrategic="1.0" lcCooperative="0.5" speedFactor="normc(1,0.1,0.7,1.3)" />
    <vType id="car_white" vClass="passenger" guiShape="passenger" length="4.5" width="1.8" maxSpeed="13.89" accel="2.6" decel="4.5" emergencyDecel="6.0" sigma="0.5" color="0.92,0.92,0.92" carFollowModel="IDM" minGap="2.5" lcStrategic="1.0" lcCooperative="0.5" speedFactor="normc(1,0.1,0.7,1.3)" />
    <vType id="car_silver" vClass="passenger" guiShape="passenger" length="4.5" width="1.8" maxSpeed="13.89" accel="2.6" decel="4.5" emergencyDecel="6.0" sigma="0.5" color="0.68,0.71,0.75" carFollowModel="IDM" minGap="2.5" lcStrategic="1.0" lcCooperative="0.5" speedFactor="normc(1,0.1,0.7,1.3)" />
    <vType id="car_red" vClass="passenger" guiShape="passenger" length="4.5" width="1.8" maxSpeed="13.89" accel="2.6" decel="4.5" emergencyDecel="6.0" sigma="0.5" color="0.85,0.18,0.18" carFollowModel="IDM" minGap="2.5" lcStrategic="1.0" lcCooperative="0.5" speedFactor="normc(1,0.1,0.7,1.3)" />
    <vType id="car_yellow" vClass="passenger" guiShape="passenger" length="4.5" width="1.8" maxSpeed="13.89" accel="2.6" decel="4.5" emergencyDecel="6.0" sigma="0.5" color="0.95,0.80,0.10" carFollowModel="IDM" minGap="2.5" lcStrategic="1.0" lcCooperative="0.5" speedFactor="normc(1,0.1,0.7,1.3)" />
    <vType id="truck" vClass="truck" guiShape="truck" length="12.0" width="2.5" maxSpeed="8.33" accel="1.2" decel="3.5" emergencyDecel="5.0" sigma="0.5" color="1.0,0.45,0.05" carFollowModel="IDM" minGap="2.5" lcStrategic="1.0" lcCooperative="0.5" speedFactor="normc(1,0.1,0.7,1.3)" />
    <vType id="bus" vClass="bus" guiShape="bus" length="12.0" width="2.5" maxSpeed="8.33" accel="1.0" decel="3.0" emergencyDecel="4.5" sigma="0.5" color="0.60,0.24,0.78" carFollowModel="IDM" minGap="2.5" lcStrategic="1.0" lcCooperative="0.5" speedFactor="normc(1,0.1,0.7,1.3)" />
    <vType id="auto" vClass="passenger" guiShape="passenger/van" length="3.2" width="1.5" maxSpeed="11.11" accel="2.8" decel="4.8" emergencyDecel="6.3" sigma="0.5" color="0.12,0.78,0.55" carFollowModel="IDM" minGap="2.5" lcStrategic="1.0" lcCooperative="0.5" speedFactor="normc(1,0.1,0.7,1.3)" />
    <vType id="bike" vClass="motorcycle" guiShape="motorcycle" length="2.0" width="0.8" maxSpeed="16.67" accel="3.5" decel="5.5" emergencyDecel="7.0" sigma="0.5" color="0.95,0.42,0.72" carFollowModel="IDM" minGap="2.5" lcStrategic="1.0" lcCooperative="0.5" speedFactor="normc(1,0.1,0.7,1.3)" />
</routes>